version 3
run General-0-20250729-12:28:40-3476
attr configname General
attr datetime 20250729-12:28:40
attr datetimef 20250729-122840
attr experiment General
attr inifile omnetpp.ini
attr iterationvars ""
attr iterationvarsd ""
attr iterationvarsf ""
attr measurement ""
attr network BlockchainNetwork
attr processid 3476
attr repetition 0
attr replication #0
attr resultdir results
attr runnumber 0
attr seedset 42
config network BlockchainNetwork
config *.iotNode*.inoutGateSize 10
config sim-time-limit 150s
config *.iotNode*.serviceInterval "uniform(1, 5)"
config *.numNodes 10
config **.maliciousNodePercentage 0
config seed-set 42

scalar BlockchainNetwork.iotNode[1] TrustOf_2_InNode_3 1
scalar BlockchainNetwork.iotNode[2] TrustOf_2_InNode_4 1
scalar BlockchainNetwork.iotNode[3] TrustOf_2_InNode_5 1
scalar BlockchainNetwork.iotNode[4] TrustOf_2_InNode_6 1
scalar BlockchainNetwork.iotNode[5] TrustOf_2_InNode_7 1
scalar BlockchainNetwork.iotNode[6] TrustOf_2_InNode_8 1
scalar BlockchainNetwork.iotNode[7] TrustOf_2_InNode_9 1
scalar BlockchainNetwork.iotNode[8] TrustOf_2_InNode_10 1
scalar BlockchainNetwork.iotNode[9] TrustOf_2_InNode_11 1
scalar BlockchainNetwork.iotNode[1] TrustOf_2_InNode_3 1
scalar BlockchainNetwork.iotNode[2] TrustOf_2_InNode_4 1
scalar BlockchainNetwork.iotNode[3] TrustOf_2_InNode_5 1
scalar BlockchainNetwork.iotNode[4] TrustOf_2_InNode_6 1
scalar BlockchainNetwork.iotNode[5] TrustOf_2_InNode_7 1
scalar BlockchainNetwork.iotNode[6] TrustOf_2_InNode_8 1
scalar BlockchainNetwork.iotNode[7] TrustOf_2_InNode_9 1
scalar BlockchainNetwork.iotNode[8] TrustOf_2_InNode_10 1
scalar BlockchainNetwork.iotNode[9] TrustOf_2_InNode_11 1
scalar BlockchainNetwork.iotNode[2] TrustOf_3_InNode_4 1
scalar BlockchainNetwork.iotNode[0] TrustOf_3_InNode_2 1
scalar BlockchainNetwork.iotNode[3] TrustOf_3_InNode_5 1
scalar BlockchainNetwork.iotNode[4] TrustOf_3_InNode_6 1
scalar BlockchainNetwork.iotNode[5] TrustOf_3_InNode_7 1
scalar BlockchainNetwork.iotNode[6] TrustOf_3_InNode_8 1
scalar BlockchainNetwork.iotNode[7] TrustOf_3_InNode_9 1
scalar BlockchainNetwork.iotNode[8] TrustOf_3_InNode_10 1
scalar BlockchainNetwork.iotNode[9] TrustOf_3_InNode_11 1
scalar BlockchainNetwork.iotNode[1] TrustOf_2_InNode_3 1
scalar BlockchainNetwork.iotNode[2] TrustOf_2_InNode_4 1
scalar BlockchainNetwork.iotNode[3] TrustOf_2_InNode_5 1
scalar BlockchainNetwork.iotNode[4] TrustOf_2_InNode_6 1
scalar BlockchainNetwork.iotNode[5] TrustOf_2_InNode_7 1
scalar BlockchainNetwork.iotNode[6] TrustOf_2_InNode_8 1
scalar BlockchainNetwork.iotNode[7] TrustOf_2_InNode_9 1
scalar BlockchainNetwork.iotNode[8] TrustOf_2_InNode_10 1
scalar BlockchainNetwork.iotNode[9] TrustOf_2_InNode_11 1
scalar BlockchainNetwork.iotNode[0] TrustOf_3_InNode_2 1
scalar BlockchainNetwork.iotNode[2] TrustOf_3_InNode_4 1
scalar BlockchainNetwork.iotNode[3] TrustOf_3_InNode_5 1
scalar BlockchainNetwork.iotNode[4] TrustOf_3_InNode_6 1
scalar BlockchainNetwork.iotNode[5] TrustOf_3_InNode_7 1
scalar BlockchainNetwork.iotNode[6] TrustOf_3_InNode_8 1
scalar BlockchainNetwork.iotNode[7] TrustOf_3_InNode_9 1
scalar BlockchainNetwork.iotNode[8] TrustOf_3_InNode_10 1
scalar BlockchainNetwork.iotNode[9] TrustOf_3_InNode_11 1
scalar BlockchainNetwork.iotNode[1] TrustOf_2_InNode_3 1
scalar BlockchainNetwork.iotNode[2] TrustOf_2_InNode_4 1
scalar BlockchainNetwork.iotNode[3] TrustOf_2_InNode_5 1
scalar BlockchainNetwork.iotNode[4] TrustOf_2_InNode_6 1
scalar BlockchainNetwork.iotNode[5] TrustOf_2_InNode_7 1
scalar BlockchainNetwork.iotNode[6] TrustOf_2_InNode_8 1
scalar BlockchainNetwork.iotNode[7] TrustOf_2_InNode_9 1
scalar BlockchainNetwork.iotNode[8] TrustOf_2_InNode_10 1
scalar BlockchainNetwork.iotNode[9] TrustOf_2_InNode_11 1
scalar BlockchainNetwork.iotNode[2] TrustOf_3_InNode_4 1
scalar BlockchainNetwork.iotNode[0] TrustOf_3_InNode_2 1
scalar BlockchainNetwork.iotNode[3] TrustOf_3_InNode_5 1
scalar BlockchainNetwork.iotNode[4] TrustOf_3_InNode_6 1
scalar BlockchainNetwork.iotNode[5] TrustOf_3_InNode_7 1
scalar BlockchainNetwork.iotNode[6] TrustOf_3_InNode_8 1
scalar BlockchainNetwork.iotNode[7] TrustOf_3_InNode_9 1
scalar BlockchainNetwork.iotNode[8] TrustOf_3_InNode_10 1
scalar BlockchainNetwork.iotNode[9] TrustOf_3_InNode_11 1
scalar BlockchainNetwork.iotNode[0] TrustOf_4_InNode_2 1
scalar BlockchainNetwork.iotNode[1] TrustOf_4_InNode_3 1
scalar BlockchainNetwork.iotNode[3] TrustOf_4_InNode_5 1
scalar BlockchainNetwork.iotNode[4] TrustOf_4_InNode_6 1
scalar BlockchainNetwork.iotNode[5] TrustOf_4_InNode_7 1
scalar BlockchainNetwork.iotNode[6] TrustOf_4_InNode_8 1
scalar BlockchainNetwork.iotNode[7] TrustOf_4_InNode_9 1
scalar BlockchainNetwork.iotNode[8] TrustOf_4_InNode_10 1
scalar BlockchainNetwork.iotNode[9] TrustOf_4_InNode_11 1
scalar BlockchainNetwork.iotNode[0] TrustOf_5_InNode_2 1
scalar BlockchainNetwork.iotNode[2] TrustOf_5_InNode_4 1
scalar BlockchainNetwork.iotNode[1] TrustOf_5_InNode_3 1
scalar BlockchainNetwork.iotNode[4] TrustOf_5_InNode_6 1
scalar BlockchainNetwork.iotNode[5] TrustOf_5_InNode_7 1
scalar BlockchainNetwork.iotNode[6] TrustOf_5_InNode_8 1
scalar BlockchainNetwork.iotNode[7] TrustOf_5_InNode_9 1
scalar BlockchainNetwork.iotNode[8] TrustOf_5_InNode_10 1
scalar BlockchainNetwork.iotNode[9] TrustOf_5_InNode_11 1
scalar BlockchainNetwork.iotNode[2] TrustOf_2_InNode_4 1
scalar BlockchainNetwork.iotNode[1] TrustOf_2_InNode_3 1
scalar BlockchainNetwork.iotNode[3] TrustOf_2_InNode_5 1
scalar BlockchainNetwork.iotNode[4] TrustOf_2_InNode_6 1
scalar BlockchainNetwork.iotNode[5] TrustOf_2_InNode_7 1
scalar BlockchainNetwork.iotNode[6] TrustOf_2_InNode_8 1
scalar BlockchainNetwork.iotNode[7] TrustOf_2_InNode_9 1
scalar BlockchainNetwork.iotNode[8] TrustOf_2_InNode_10 1
scalar BlockchainNetwork.iotNode[9] TrustOf_2_InNode_11 1
scalar BlockchainNetwork.iotNode[2] TrustOf_5_InNode_4 1
scalar BlockchainNetwork.iotNode[0] TrustOf_5_InNode_2 1
scalar BlockchainNetwork.iotNode[1] TrustOf_5_InNode_3 1
scalar BlockchainNetwork.iotNode[4] TrustOf_5_InNode_6 1
scalar BlockchainNetwork.iotNode[5] TrustOf_5_InNode_7 1
scalar BlockchainNetwork.iotNode[6] TrustOf_5_InNode_8 1
scalar BlockchainNetwork.iotNode[7] TrustOf_5_InNode_9 1
scalar BlockchainNetwork.iotNode[8] TrustOf_5_InNode_10 1
scalar BlockchainNetwork.iotNode[9] TrustOf_5_InNode_11 1
scalar BlockchainNetwork.iotNode[1] TrustOf_4_InNode_3 1
scalar BlockchainNetwork.iotNode[0] TrustOf_4_InNode_2 1
scalar BlockchainNetwork.iotNode[3] TrustOf_4_InNode_5 1
scalar BlockchainNetwork.iotNode[4] TrustOf_4_InNode_6 1
scalar BlockchainNetwork.iotNode[5] TrustOf_4_InNode_7 1
scalar BlockchainNetwork.iotNode[6] TrustOf_4_InNode_8 1
scalar BlockchainNetwork.iotNode[7] TrustOf_4_InNode_9 1
scalar BlockchainNetwork.iotNode[8] TrustOf_4_InNode_10 1
scalar BlockchainNetwork.iotNode[9] TrustOf_4_InNode_11 1
scalar BlockchainNetwork.iotNode[2] TrustOf_2_InNode_4 1
scalar BlockchainNetwork.iotNode[1] TrustOf_2_InNode_3 1
scalar BlockchainNetwork.iotNode[3] TrustOf_2_InNode_5 1
scalar BlockchainNetwork.iotNode[4] TrustOf_2_InNode_6 1
scalar BlockchainNetwork.iotNode[5] TrustOf_2_InNode_7 1
scalar BlockchainNetwork.iotNode[6] TrustOf_2_InNode_8 1
scalar BlockchainNetwork.iotNode[7] TrustOf_2_InNode_9 1
scalar BlockchainNetwork.iotNode[8] TrustOf_2_InNode_10 1
scalar BlockchainNetwork.iotNode[9] TrustOf_2_InNode_11 1
scalar BlockchainNetwork.iotNode[0] TrustOf_3_InNode_2 1
scalar BlockchainNetwork.iotNode[2] TrustOf_3_InNode_4 1
scalar BlockchainNetwork.iotNode[3] TrustOf_3_InNode_5 1
scalar BlockchainNetwork.iotNode[4] TrustOf_3_InNode_6 1
scalar BlockchainNetwork.iotNode[5] TrustOf_3_InNode_7 1
scalar BlockchainNetwork.iotNode[6] TrustOf_3_InNode_8 1
scalar BlockchainNetwork.iotNode[7] TrustOf_3_InNode_9 1
scalar BlockchainNetwork.iotNode[8] TrustOf_3_InNode_10 1
scalar BlockchainNetwork.iotNode[9] TrustOf_3_InNode_11 1
scalar BlockchainNetwork.iotNode[2] TrustOf_2_InNode_4 1
scalar BlockchainNetwork.iotNode[1] TrustOf_2_InNode_3 1
scalar BlockchainNetwork.iotNode[3] TrustOf_2_InNode_5 1
scalar BlockchainNetwork.iotNode[4] TrustOf_2_InNode_6 1
scalar BlockchainNetwork.iotNode[5] TrustOf_2_InNode_7 1
scalar BlockchainNetwork.iotNode[6] TrustOf_2_InNode_8 1
scalar BlockchainNetwork.iotNode[7] TrustOf_2_InNode_9 1
scalar BlockchainNetwork.iotNode[8] TrustOf_2_InNode_10 1
scalar BlockchainNetwork.iotNode[9] TrustOf_2_InNode_11 1
scalar BlockchainNetwork.iotNode[2] TrustOf_5_InNode_4 1
scalar BlockchainNetwork.iotNode[0] TrustOf_5_InNode_2 1
scalar BlockchainNetwork.iotNode[1] TrustOf_5_InNode_3 1
scalar BlockchainNetwork.iotNode[4] TrustOf_5_InNode_6 1
scalar BlockchainNetwork.iotNode[5] TrustOf_5_InNode_7 1
scalar BlockchainNetwork.iotNode[6] TrustOf_5_InNode_8 1
scalar BlockchainNetwork.iotNode[7] TrustOf_5_InNode_9 1
scalar BlockchainNetwork.iotNode[8] TrustOf_5_InNode_10 1
scalar BlockchainNetwork.iotNode[9] TrustOf_5_InNode_11 1
scalar BlockchainNetwork.iotNode[0] TrustOf_4_InNode_2 1
scalar BlockchainNetwork.iotNode[1] TrustOf_4_InNode_3 1
scalar BlockchainNetwork.iotNode[3] TrustOf_4_InNode_5 1
scalar BlockchainNetwork.iotNode[4] TrustOf_4_InNode_6 1
scalar BlockchainNetwork.iotNode[5] TrustOf_4_InNode_7 1
scalar BlockchainNetwork.iotNode[6] TrustOf_4_InNode_8 1
scalar BlockchainNetwork.iotNode[7] TrustOf_4_InNode_9 1
scalar BlockchainNetwork.iotNode[8] TrustOf_4_InNode_10 1
scalar BlockchainNetwork.iotNode[9] TrustOf_4_InNode_11 1
scalar BlockchainNetwork.iotNode[2] TrustOf_5_InNode_4 1
scalar BlockchainNetwork.iotNode[0] TrustOf_5_InNode_2 1
scalar BlockchainNetwork.iotNode[1] TrustOf_5_InNode_3 1
scalar BlockchainNetwork.iotNode[4] TrustOf_5_InNode_6 1
scalar BlockchainNetwork.iotNode[5] TrustOf_5_InNode_7 1
scalar BlockchainNetwork.iotNode[6] TrustOf_5_InNode_8 1
scalar BlockchainNetwork.iotNode[7] TrustOf_5_InNode_9 1
scalar BlockchainNetwork.iotNode[8] TrustOf_5_InNode_10 1
scalar BlockchainNetwork.iotNode[9] TrustOf_5_InNode_11 1
scalar BlockchainNetwork.iotNode[0] TrustOf_4_InNode_2 1
scalar BlockchainNetwork.iotNode[3] TrustOf_4_InNode_5 1
scalar BlockchainNetwork.iotNode[1] TrustOf_4_InNode_3 1
scalar BlockchainNetwork.iotNode[4] TrustOf_4_InNode_6 1
scalar BlockchainNetwork.iotNode[5] TrustOf_4_InNode_7 1
scalar BlockchainNetwork.iotNode[6] TrustOf_4_InNode_8 1
scalar BlockchainNetwork.iotNode[7] TrustOf_4_InNode_9 1
scalar BlockchainNetwork.iotNode[8] TrustOf_4_InNode_10 1
scalar BlockchainNetwork.iotNode[9] TrustOf_4_InNode_11 1
scalar BlockchainNetwork.iotNode[0] TrustOf_5_InNode_2 1
scalar BlockchainNetwork.iotNode[2] TrustOf_5_InNode_4 1
scalar BlockchainNetwork.iotNode[1] TrustOf_5_InNode_3 1
scalar BlockchainNetwork.iotNode[4] TrustOf_5_InNode_6 1
scalar BlockchainNetwork.iotNode[5] TrustOf_5_InNode_7 1
scalar BlockchainNetwork.iotNode[6] TrustOf_5_InNode_8 1
scalar BlockchainNetwork.iotNode[7] TrustOf_5_InNode_9 1
scalar BlockchainNetwork.iotNode[8] TrustOf_5_InNode_10 1
scalar BlockchainNetwork.iotNode[9] TrustOf_5_InNode_11 1
scalar BlockchainNetwork.iotNode[0] TrustOf_5_InNode_2 1
scalar BlockchainNetwork.iotNode[2] TrustOf_5_InNode_4 1
scalar BlockchainNetwork.iotNode[1] TrustOf_5_InNode_3 1
scalar BlockchainNetwork.iotNode[4] TrustOf_5_InNode_6 1
scalar BlockchainNetwork.iotNode[5] TrustOf_5_InNode_7 1
scalar BlockchainNetwork.iotNode[6] TrustOf_5_InNode_8 1
scalar BlockchainNetwork.iotNode[7] TrustOf_5_InNode_9 1
scalar BlockchainNetwork.iotNode[8] TrustOf_5_InNode_10 1
scalar BlockchainNetwork.iotNode[9] TrustOf_5_InNode_11 1
scalar BlockchainNetwork.iotNode[0] TrustOf_4_InNode_2 1
scalar BlockchainNetwork.iotNode[3] TrustOf_4_InNode_5 1
scalar BlockchainNetwork.iotNode[1] TrustOf_4_InNode_3 1
scalar BlockchainNetwork.iotNode[4] TrustOf_4_InNode_6 1
scalar BlockchainNetwork.iotNode[5] TrustOf_4_InNode_7 1
scalar BlockchainNetwork.iotNode[6] TrustOf_4_InNode_8 1
scalar BlockchainNetwork.iotNode[7] TrustOf_4_InNode_9 1
scalar BlockchainNetwork.iotNode[8] TrustOf_4_InNode_10 1
scalar BlockchainNetwork.iotNode[9] TrustOf_4_InNode_11 1
scalar BlockchainNetwork.iotNode[0] AverageBadServicesAt_10 0
scalar BlockchainNetwork.iotNode[1] AverageBadServicesAt_10 0
scalar BlockchainNetwork.iotNode[2] AverageBadServicesAt_10 0
scalar BlockchainNetwork.iotNode[3] AverageBadServicesAt_10 0
scalar BlockchainNetwork.iotNode[4] AverageBadServicesAt_10 0
scalar BlockchainNetwork.iotNode[5] AverageBadServicesAt_10 0
scalar BlockchainNetwork.iotNode[6] AverageBadServicesAt_10 0
scalar BlockchainNetwork.iotNode[7] AverageBadServicesAt_10 0
scalar BlockchainNetwork.iotNode[8] AverageBadServicesAt_10 0
scalar BlockchainNetwork.iotNode[9] AverageBadServicesAt_10 0
scalar BlockchainNetwork.iotNode[0] TrustOf_3_InNode_2 1
scalar BlockchainNetwork.iotNode[3] TrustOf_3_InNode_5 1
scalar BlockchainNetwork.iotNode[2] TrustOf_3_InNode_4 1
scalar BlockchainNetwork.iotNode[4] TrustOf_3_InNode_6 1
scalar BlockchainNetwork.iotNode[5] TrustOf_3_InNode_7 1
scalar BlockchainNetwork.iotNode[6] TrustOf_3_InNode_8 1
scalar BlockchainNetwork.iotNode[7] TrustOf_3_InNode_9 1
scalar BlockchainNetwork.iotNode[8] TrustOf_3_InNode_10 1
scalar BlockchainNetwork.iotNode[9] TrustOf_3_InNode_11 1
scalar BlockchainNetwork.iotNode[0] TrustOf_3_InNode_2 1
scalar BlockchainNetwork.iotNode[3] TrustOf_3_InNode_5 1
scalar BlockchainNetwork.iotNode[2] TrustOf_3_InNode_4 1
scalar BlockchainNetwork.iotNode[4] TrustOf_3_InNode_6 1
scalar BlockchainNetwork.iotNode[5] TrustOf_3_InNode_7 1
scalar BlockchainNetwork.iotNode[6] TrustOf_3_InNode_8 1
scalar BlockchainNetwork.iotNode[7] TrustOf_3_InNode_9 1
scalar BlockchainNetwork.iotNode[8] TrustOf_3_InNode_10 1
scalar BlockchainNetwork.iotNode[9] TrustOf_3_InNode_11 1
scalar BlockchainNetwork.iotNode[3] TrustOf_3_InNode_5 1
scalar BlockchainNetwork.iotNode[0] TrustOf_3_InNode_2 1
scalar BlockchainNetwork.iotNode[2] TrustOf_3_InNode_4 1
scalar BlockchainNetwork.iotNode[4] TrustOf_3_InNode_6 1
scalar BlockchainNetwork.iotNode[5] TrustOf_3_InNode_7 1
scalar BlockchainNetwork.iotNode[6] TrustOf_3_InNode_8 1
scalar BlockchainNetwork.iotNode[7] TrustOf_3_InNode_9 1
scalar BlockchainNetwork.iotNode[8] TrustOf_3_InNode_10 1
scalar BlockchainNetwork.iotNode[9] TrustOf_3_InNode_11 1
scalar BlockchainNetwork.iotNode[2] TrustOf_11_InNode_4 1
scalar BlockchainNetwork.iotNode[0] TrustOf_11_InNode_2 1
scalar BlockchainNetwork.iotNode[3] TrustOf_11_InNode_5 1
scalar BlockchainNetwork.iotNode[1] TrustOf_11_InNode_3 1
scalar BlockchainNetwork.iotNode[4] TrustOf_11_InNode_6 1
scalar BlockchainNetwork.iotNode[5] TrustOf_11_InNode_7 1
scalar BlockchainNetwork.iotNode[6] TrustOf_11_InNode_8 1
scalar BlockchainNetwork.iotNode[7] TrustOf_11_InNode_9 1
scalar BlockchainNetwork.iotNode[8] TrustOf_11_InNode_10 1
scalar BlockchainNetwork.iotNode[3] TrustOf_2_InNode_5 1
scalar BlockchainNetwork.iotNode[2] TrustOf_2_InNode_4 1
scalar BlockchainNetwork.iotNode[1] TrustOf_2_InNode_3 1
scalar BlockchainNetwork.iotNode[9] TrustOf_2_InNode_11 1
scalar BlockchainNetwork.iotNode[4] TrustOf_2_InNode_6 1
scalar BlockchainNetwork.iotNode[5] TrustOf_2_InNode_7 1
scalar BlockchainNetwork.iotNode[6] TrustOf_2_InNode_8 1
scalar BlockchainNetwork.iotNode[7] TrustOf_2_InNode_9 1
scalar BlockchainNetwork.iotNode[8] TrustOf_2_InNode_10 1
scalar BlockchainNetwork.iotNode[3] TrustOf_4_InNode_5 1
scalar BlockchainNetwork.iotNode[0] TrustOf_4_InNode_2 1
scalar BlockchainNetwork.iotNode[1] TrustOf_4_InNode_3 1
scalar BlockchainNetwork.iotNode[9] TrustOf_4_InNode_11 1
scalar BlockchainNetwork.iotNode[4] TrustOf_4_InNode_6 1
scalar BlockchainNetwork.iotNode[5] TrustOf_4_InNode_7 1
scalar BlockchainNetwork.iotNode[6] TrustOf_4_InNode_8 1
scalar BlockchainNetwork.iotNode[7] TrustOf_4_InNode_9 1
scalar BlockchainNetwork.iotNode[8] TrustOf_4_InNode_10 1
scalar BlockchainNetwork.iotNode[0] TrustOf_3_InNode_2 1
scalar BlockchainNetwork.iotNode[3] TrustOf_3_InNode_5 1
scalar BlockchainNetwork.iotNode[2] TrustOf_3_InNode_4 1
scalar BlockchainNetwork.iotNode[9] TrustOf_3_InNode_11 1
scalar BlockchainNetwork.iotNode[4] TrustOf_3_InNode_6 1
scalar BlockchainNetwork.iotNode[5] TrustOf_3_InNode_7 1
scalar BlockchainNetwork.iotNode[6] TrustOf_3_InNode_8 1
scalar BlockchainNetwork.iotNode[7] TrustOf_3_InNode_9 1
scalar BlockchainNetwork.iotNode[8] TrustOf_3_InNode_10 1
scalar BlockchainNetwork.iotNode[0] TrustOf_3_InNode_2 1
scalar BlockchainNetwork.iotNode[3] TrustOf_3_InNode_5 1
scalar BlockchainNetwork.iotNode[2] TrustOf_3_InNode_4 1
scalar BlockchainNetwork.iotNode[9] TrustOf_3_InNode_11 1
scalar BlockchainNetwork.iotNode[4] TrustOf_3_InNode_6 1
scalar BlockchainNetwork.iotNode[5] TrustOf_3_InNode_7 1
scalar BlockchainNetwork.iotNode[6] TrustOf_3_InNode_8 1
scalar BlockchainNetwork.iotNode[7] TrustOf_3_InNode_9 1
scalar BlockchainNetwork.iotNode[8] TrustOf_3_InNode_10 1
scalar BlockchainNetwork.iotNode[3] TrustOf_3_InNode_5 1
scalar BlockchainNetwork.iotNode[0] TrustOf_3_InNode_2 1
scalar BlockchainNetwork.iotNode[2] TrustOf_3_InNode_4 1
scalar BlockchainNetwork.iotNode[9] TrustOf_3_InNode_11 1
scalar BlockchainNetwork.iotNode[4] TrustOf_3_InNode_6 1
scalar BlockchainNetwork.iotNode[5] TrustOf_3_InNode_7 1
scalar BlockchainNetwork.iotNode[6] TrustOf_3_InNode_8 1
scalar BlockchainNetwork.iotNode[7] TrustOf_3_InNode_9 1
scalar BlockchainNetwork.iotNode[8] TrustOf_3_InNode_10 1
scalar BlockchainNetwork.iotNode[1] TrustOf_5_InNode_3 1
scalar BlockchainNetwork.iotNode[0] TrustOf_5_InNode_2 1
scalar BlockchainNetwork.iotNode[2] TrustOf_5_InNode_4 1
scalar BlockchainNetwork.iotNode[9] TrustOf_5_InNode_11 1
scalar BlockchainNetwork.iotNode[4] TrustOf_5_InNode_6 1
scalar BlockchainNetwork.iotNode[5] TrustOf_5_InNode_7 1
scalar BlockchainNetwork.iotNode[6] TrustOf_5_InNode_8 1
scalar BlockchainNetwork.iotNode[7] TrustOf_5_InNode_9 1
scalar BlockchainNetwork.iotNode[8] TrustOf_5_InNode_10 1
scalar BlockchainNetwork.iotNode[0] TrustOf_3_InNode_2 1
scalar BlockchainNetwork.iotNode[3] TrustOf_3_InNode_5 1
scalar BlockchainNetwork.iotNode[2] TrustOf_3_InNode_4 1
scalar BlockchainNetwork.iotNode[9] TrustOf_3_InNode_11 1
scalar BlockchainNetwork.iotNode[4] TrustOf_3_InNode_6 1
scalar BlockchainNetwork.iotNode[5] TrustOf_3_InNode_7 1
scalar BlockchainNetwork.iotNode[6] TrustOf_3_InNode_8 1
scalar BlockchainNetwork.iotNode[7] TrustOf_3_InNode_9 1
scalar BlockchainNetwork.iotNode[8] TrustOf_3_InNode_10 1
scalar BlockchainNetwork.iotNode[3] TrustOf_4_InNode_5 1
scalar BlockchainNetwork.iotNode[1] TrustOf_4_InNode_3 1
scalar BlockchainNetwork.iotNode[0] TrustOf_4_InNode_2 1
scalar BlockchainNetwork.iotNode[9] TrustOf_4_InNode_11 1
scalar BlockchainNetwork.iotNode[4] TrustOf_4_InNode_6 1
scalar BlockchainNetwork.iotNode[5] TrustOf_4_InNode_7 1
scalar BlockchainNetwork.iotNode[6] TrustOf_4_InNode_8 1
scalar BlockchainNetwork.iotNode[7] TrustOf_4_InNode_9 1
scalar BlockchainNetwork.iotNode[8] TrustOf_4_InNode_10 1
scalar BlockchainNetwork.iotNode[0] TrustOf_4_InNode_2 1
scalar BlockchainNetwork.iotNode[1] TrustOf_4_InNode_3 1
scalar BlockchainNetwork.iotNode[3] TrustOf_4_InNode_5 1
scalar BlockchainNetwork.iotNode[9] TrustOf_4_InNode_11 1
scalar BlockchainNetwork.iotNode[4] TrustOf_4_InNode_6 1
scalar BlockchainNetwork.iotNode[5] TrustOf_4_InNode_7 1
scalar BlockchainNetwork.iotNode[6] TrustOf_4_InNode_8 1
scalar BlockchainNetwork.iotNode[7] TrustOf_4_InNode_9 1
scalar BlockchainNetwork.iotNode[8] TrustOf_4_InNode_10 1
scalar BlockchainNetwork.iotNode[3] TrustOf_4_InNode_5 1
scalar BlockchainNetwork.iotNode[1] TrustOf_4_InNode_3 1
scalar BlockchainNetwork.iotNode[0] TrustOf_4_InNode_2 1
scalar BlockchainNetwork.iotNode[9] TrustOf_4_InNode_11 1
scalar BlockchainNetwork.iotNode[4] TrustOf_4_InNode_6 1
scalar BlockchainNetwork.iotNode[5] TrustOf_4_InNode_7 1
scalar BlockchainNetwork.iotNode[6] TrustOf_4_InNode_8 1
scalar BlockchainNetwork.iotNode[7] TrustOf_4_InNode_9 1
scalar BlockchainNetwork.iotNode[8] TrustOf_4_InNode_10 1
scalar BlockchainNetwork.iotNode[1] TrustOf_7_InNode_3 1
scalar BlockchainNetwork.iotNode[2] TrustOf_7_InNode_4 1
scalar BlockchainNetwork.iotNode[3] TrustOf_7_InNode_5 1
scalar BlockchainNetwork.iotNode[0] TrustOf_7_InNode_2 1
scalar BlockchainNetwork.iotNode[9] TrustOf_7_InNode_11 1
scalar BlockchainNetwork.iotNode[4] TrustOf_7_InNode_6 1
scalar BlockchainNetwork.iotNode[6] TrustOf_7_InNode_8 1
scalar BlockchainNetwork.iotNode[7] TrustOf_7_InNode_9 1
scalar BlockchainNetwork.iotNode[8] TrustOf_7_InNode_10 1
scalar BlockchainNetwork.iotNode[2] TrustOf_3_InNode_4 1
scalar BlockchainNetwork.iotNode[3] TrustOf_3_InNode_5 1
scalar BlockchainNetwork.iotNode[0] TrustOf_3_InNode_2 1
scalar BlockchainNetwork.iotNode[9] TrustOf_3_InNode_11 1
scalar BlockchainNetwork.iotNode[5] TrustOf_3_InNode_7 1
scalar BlockchainNetwork.iotNode[4] TrustOf_3_InNode_6 1
scalar BlockchainNetwork.iotNode[6] TrustOf_3_InNode_8 1
scalar BlockchainNetwork.iotNode[7] TrustOf_3_InNode_9 1
scalar BlockchainNetwork.iotNode[8] TrustOf_3_InNode_10 1
scalar BlockchainNetwork.iotNode[2] TrustOf_2_InNode_4 1
scalar BlockchainNetwork.iotNode[1] TrustOf_2_InNode_3 1
scalar BlockchainNetwork.iotNode[3] TrustOf_2_InNode_5 1
scalar BlockchainNetwork.iotNode[9] TrustOf_2_InNode_11 1
scalar BlockchainNetwork.iotNode[5] TrustOf_2_InNode_7 1
scalar BlockchainNetwork.iotNode[4] TrustOf_2_InNode_6 1
scalar BlockchainNetwork.iotNode[6] TrustOf_2_InNode_8 1
scalar BlockchainNetwork.iotNode[7] TrustOf_2_InNode_9 1
scalar BlockchainNetwork.iotNode[8] TrustOf_2_InNode_10 1
scalar BlockchainNetwork.iotNode[1] TrustOf_4_InNode_3 1
scalar BlockchainNetwork.iotNode[0] TrustOf_4_InNode_2 1
scalar BlockchainNetwork.iotNode[3] TrustOf_4_InNode_5 1
scalar BlockchainNetwork.iotNode[9] TrustOf_4_InNode_11 1
scalar BlockchainNetwork.iotNode[5] TrustOf_4_InNode_7 1
scalar BlockchainNetwork.iotNode[4] TrustOf_4_InNode_6 1
scalar BlockchainNetwork.iotNode[6] TrustOf_4_InNode_8 1
scalar BlockchainNetwork.iotNode[7] TrustOf_4_InNode_9 1
scalar BlockchainNetwork.iotNode[8] TrustOf_4_InNode_10 1
scalar BlockchainNetwork.iotNode[1] TrustOf_4_InNode_3 1
scalar BlockchainNetwork.iotNode[0] TrustOf_4_InNode_2 1
scalar BlockchainNetwork.iotNode[3] TrustOf_4_InNode_5 1
scalar BlockchainNetwork.iotNode[9] TrustOf_4_InNode_11 1
scalar BlockchainNetwork.iotNode[5] TrustOf_4_InNode_7 1
scalar BlockchainNetwork.iotNode[4] TrustOf_4_InNode_6 1
scalar BlockchainNetwork.iotNode[6] TrustOf_4_InNode_8 1
scalar BlockchainNetwork.iotNode[7] TrustOf_4_InNode_9 1
scalar BlockchainNetwork.iotNode[8] TrustOf_4_InNode_10 1
scalar BlockchainNetwork.iotNode[2] TrustOf_3_InNode_4 1
scalar BlockchainNetwork.iotNode[0] TrustOf_3_InNode_2 1
scalar BlockchainNetwork.iotNode[3] TrustOf_3_InNode_5 1
scalar BlockchainNetwork.iotNode[9] TrustOf_3_InNode_11 1
scalar BlockchainNetwork.iotNode[5] TrustOf_3_InNode_7 1
scalar BlockchainNetwork.iotNode[4] TrustOf_3_InNode_6 1
scalar BlockchainNetwork.iotNode[6] TrustOf_3_InNode_8 1
scalar BlockchainNetwork.iotNode[7] TrustOf_3_InNode_9 1
scalar BlockchainNetwork.iotNode[8] TrustOf_3_InNode_10 1
scalar BlockchainNetwork.iotNode[1] TrustOf_2_InNode_3 1
scalar BlockchainNetwork.iotNode[2] TrustOf_2_InNode_4 1
scalar BlockchainNetwork.iotNode[3] TrustOf_2_InNode_5 1
scalar BlockchainNetwork.iotNode[9] TrustOf_2_InNode_11 1
scalar BlockchainNetwork.iotNode[5] TrustOf_2_InNode_7 1
scalar BlockchainNetwork.iotNode[4] TrustOf_2_InNode_6 1
scalar BlockchainNetwork.iotNode[6] TrustOf_2_InNode_8 1
scalar BlockchainNetwork.iotNode[7] TrustOf_2_InNode_9 1
scalar BlockchainNetwork.iotNode[8] TrustOf_2_InNode_10 1
scalar BlockchainNetwork.iotNode[0] TrustOf_4_InNode_2 1
scalar BlockchainNetwork.iotNode[1] TrustOf_4_InNode_3 1
scalar BlockchainNetwork.iotNode[3] TrustOf_4_InNode_5 1
scalar BlockchainNetwork.iotNode[9] TrustOf_4_InNode_11 1
scalar BlockchainNetwork.iotNode[5] TrustOf_4_InNode_7 1
scalar BlockchainNetwork.iotNode[4] TrustOf_4_InNode_6 1
scalar BlockchainNetwork.iotNode[6] TrustOf_4_InNode_8 1
scalar BlockchainNetwork.iotNode[7] TrustOf_4_InNode_9 1
scalar BlockchainNetwork.iotNode[8] TrustOf_4_InNode_10 1
scalar BlockchainNetwork.iotNode[2] TrustOf_3_InNode_4 1
scalar BlockchainNetwork.iotNode[0] TrustOf_3_InNode_2 1
scalar BlockchainNetwork.iotNode[3] TrustOf_3_InNode_5 1
scalar BlockchainNetwork.iotNode[9] TrustOf_3_InNode_11 1
scalar BlockchainNetwork.iotNode[5] TrustOf_3_InNode_7 1
scalar BlockchainNetwork.iotNode[4] TrustOf_3_InNode_6 1
scalar BlockchainNetwork.iotNode[6] TrustOf_3_InNode_8 1
scalar BlockchainNetwork.iotNode[7] TrustOf_3_InNode_9 1
scalar BlockchainNetwork.iotNode[8] TrustOf_3_InNode_10 1
scalar BlockchainNetwork.iotNode[0] TrustOf_4_InNode_2 1
scalar BlockchainNetwork.iotNode[1] TrustOf_4_InNode_3 1
scalar BlockchainNetwork.iotNode[3] TrustOf_4_InNode_5 1
scalar BlockchainNetwork.iotNode[9] TrustOf_4_InNode_11 1
scalar BlockchainNetwork.iotNode[5] TrustOf_4_InNode_7 1
scalar BlockchainNetwork.iotNode[4] TrustOf_4_InNode_6 1
scalar BlockchainNetwork.iotNode[6] TrustOf_4_InNode_8 1
scalar BlockchainNetwork.iotNode[7] TrustOf_4_InNode_9 1
scalar BlockchainNetwork.iotNode[8] TrustOf_4_InNode_10 1
scalar BlockchainNetwork.iotNode[0] TrustOf_11_InNode_2 1
scalar BlockchainNetwork.iotNode[1] TrustOf_11_InNode_3 1
scalar BlockchainNetwork.iotNode[2] TrustOf_11_InNode_4 1
scalar BlockchainNetwork.iotNode[3] TrustOf_11_InNode_5 1
scalar BlockchainNetwork.iotNode[5] TrustOf_11_InNode_7 1
scalar BlockchainNetwork.iotNode[4] TrustOf_11_InNode_6 1
scalar BlockchainNetwork.iotNode[6] TrustOf_11_InNode_8 1
scalar BlockchainNetwork.iotNode[7] TrustOf_11_InNode_9 1
scalar BlockchainNetwork.iotNode[8] TrustOf_11_InNode_10 1
scalar BlockchainNetwork.iotNode[2] TrustOf_3_InNode_4 1
scalar BlockchainNetwork.iotNode[0] TrustOf_3_InNode_2 1
scalar BlockchainNetwork.iotNode[3] TrustOf_3_InNode_5 1
scalar BlockchainNetwork.iotNode[9] TrustOf_3_InNode_11 1
scalar BlockchainNetwork.iotNode[5] TrustOf_3_InNode_7 1
scalar BlockchainNetwork.iotNode[4] TrustOf_3_InNode_6 1
scalar BlockchainNetwork.iotNode[6] TrustOf_3_InNode_8 1
scalar BlockchainNetwork.iotNode[7] TrustOf_3_InNode_9 1
scalar BlockchainNetwork.iotNode[8] TrustOf_3_InNode_10 1
scalar BlockchainNetwork.iotNode[2] TrustOf_2_InNode_4 1
scalar BlockchainNetwork.iotNode[1] TrustOf_2_InNode_3 1
scalar BlockchainNetwork.iotNode[3] TrustOf_2_InNode_5 1
scalar BlockchainNetwork.iotNode[9] TrustOf_2_InNode_11 1
scalar BlockchainNetwork.iotNode[5] TrustOf_2_InNode_7 1
scalar BlockchainNetwork.iotNode[4] TrustOf_2_InNode_6 1
scalar BlockchainNetwork.iotNode[6] TrustOf_2_InNode_8 1
scalar BlockchainNetwork.iotNode[7] TrustOf_2_InNode_9 1
scalar BlockchainNetwork.iotNode[8] TrustOf_2_InNode_10 1
scalar BlockchainNetwork.iotNode[0] AverageBadServicesAt_20 0
scalar BlockchainNetwork.iotNode[1] AverageBadServicesAt_20 0
scalar BlockchainNetwork.iotNode[2] AverageBadServicesAt_20 0
scalar BlockchainNetwork.iotNode[3] AverageBadServicesAt_20 0
scalar BlockchainNetwork.iotNode[4] AverageBadServicesAt_20 0
scalar BlockchainNetwork.iotNode[5] AverageBadServicesAt_20 0
scalar BlockchainNetwork.iotNode[6] AverageBadServicesAt_20 0
scalar BlockchainNetwork.iotNode[7] AverageBadServicesAt_20 0
scalar BlockchainNetwork.iotNode[8] AverageBadServicesAt_20 0
scalar BlockchainNetwork.iotNode[9] AverageBadServicesAt_20 0
scalar BlockchainNetwork.iotNode[2] TrustOf_2_InNode_4 1
scalar BlockchainNetwork.iotNode[1] TrustOf_2_InNode_3 1
scalar BlockchainNetwork.iotNode[3] TrustOf_2_InNode_5 1
scalar BlockchainNetwork.iotNode[9] TrustOf_2_InNode_11 1
scalar BlockchainNetwork.iotNode[5] TrustOf_2_InNode_7 1
scalar BlockchainNetwork.iotNode[4] TrustOf_2_InNode_6 1
scalar BlockchainNetwork.iotNode[6] TrustOf_2_InNode_8 1
scalar BlockchainNetwork.iotNode[7] TrustOf_2_InNode_9 1
scalar BlockchainNetwork.iotNode[8] TrustOf_2_InNode_10 1
scalar BlockchainNetwork.iotNode[1] TrustOf_5_InNode_3 1
scalar BlockchainNetwork.iotNode[2] TrustOf_5_InNode_4 1
scalar BlockchainNetwork.iotNode[0] TrustOf_5_InNode_2 1
scalar BlockchainNetwork.iotNode[9] TrustOf_5_InNode_11 1
scalar BlockchainNetwork.iotNode[5] TrustOf_5_InNode_7 1
scalar BlockchainNetwork.iotNode[4] TrustOf_5_InNode_6 1
scalar BlockchainNetwork.iotNode[6] TrustOf_5_InNode_8 1
scalar BlockchainNetwork.iotNode[7] TrustOf_5_InNode_9 1
scalar BlockchainNetwork.iotNode[8] TrustOf_5_InNode_10 1
scalar BlockchainNetwork.iotNode[1] TrustOf_4_InNode_3 1
scalar BlockchainNetwork.iotNode[0] TrustOf_4_InNode_2 1
scalar BlockchainNetwork.iotNode[3] TrustOf_4_InNode_5 1
scalar BlockchainNetwork.iotNode[9] TrustOf_4_InNode_11 1
scalar BlockchainNetwork.iotNode[5] TrustOf_4_InNode_7 1
scalar BlockchainNetwork.iotNode[4] TrustOf_4_InNode_6 1
scalar BlockchainNetwork.iotNode[6] TrustOf_4_InNode_8 1
scalar BlockchainNetwork.iotNode[7] TrustOf_4_InNode_9 1
scalar BlockchainNetwork.iotNode[8] TrustOf_4_InNode_10 1
scalar BlockchainNetwork.iotNode[2] TrustOf_3_InNode_4 1
scalar BlockchainNetwork.iotNode[0] TrustOf_3_InNode_2 1
scalar BlockchainNetwork.iotNode[3] TrustOf_3_InNode_5 1
scalar BlockchainNetwork.iotNode[9] TrustOf_3_InNode_11 1
scalar BlockchainNetwork.iotNode[5] TrustOf_3_InNode_7 1
scalar BlockchainNetwork.iotNode[4] TrustOf_3_InNode_6 1
scalar BlockchainNetwork.iotNode[6] TrustOf_3_InNode_8 1
scalar BlockchainNetwork.iotNode[7] TrustOf_3_InNode_9 1
scalar BlockchainNetwork.iotNode[8] TrustOf_3_InNode_10 1
scalar BlockchainNetwork.iotNode[2] TrustOf_5_InNode_4 1
scalar BlockchainNetwork.iotNode[1] TrustOf_5_InNode_3 1
scalar BlockchainNetwork.iotNode[0] TrustOf_5_InNode_2 1
scalar BlockchainNetwork.iotNode[9] TrustOf_5_InNode_11 1
scalar BlockchainNetwork.iotNode[5] TrustOf_5_InNode_7 1
scalar BlockchainNetwork.iotNode[4] TrustOf_5_InNode_6 1
scalar BlockchainNetwork.iotNode[6] TrustOf_5_InNode_8 1
scalar BlockchainNetwork.iotNode[7] TrustOf_5_InNode_9 1
scalar BlockchainNetwork.iotNode[8] TrustOf_5_InNode_10 1
scalar BlockchainNetwork.iotNode[1] TrustOf_4_InNode_3 1
scalar BlockchainNetwork.iotNode[0] TrustOf_4_InNode_2 1
scalar BlockchainNetwork.iotNode[3] TrustOf_4_InNode_5 1
scalar BlockchainNetwork.iotNode[9] TrustOf_4_InNode_11 1
scalar BlockchainNetwork.iotNode[5] TrustOf_4_InNode_7 1
scalar BlockchainNetwork.iotNode[4] TrustOf_4_InNode_6 1
scalar BlockchainNetwork.iotNode[6] TrustOf_4_InNode_8 1
scalar BlockchainNetwork.iotNode[7] TrustOf_4_InNode_9 1
scalar BlockchainNetwork.iotNode[8] TrustOf_4_InNode_10 1
scalar BlockchainNetwork.iotNode[2] TrustOf_5_InNode_4 1
scalar BlockchainNetwork.iotNode[1] TrustOf_5_InNode_3 1
scalar BlockchainNetwork.iotNode[0] TrustOf_5_InNode_2 1
scalar BlockchainNetwork.iotNode[9] TrustOf_5_InNode_11 1
scalar BlockchainNetwork.iotNode[5] TrustOf_5_InNode_7 1
scalar BlockchainNetwork.iotNode[4] TrustOf_5_InNode_6 1
scalar BlockchainNetwork.iotNode[6] TrustOf_5_InNode_8 1
scalar BlockchainNetwork.iotNode[7] TrustOf_5_InNode_9 1
scalar BlockchainNetwork.iotNode[8] TrustOf_5_InNode_10 1
scalar BlockchainNetwork.iotNode[3] TrustOf_2_InNode_5 1
scalar BlockchainNetwork.iotNode[1] TrustOf_2_InNode_3 1
scalar BlockchainNetwork.iotNode[2] TrustOf_2_InNode_4 1
scalar BlockchainNetwork.iotNode[9] TrustOf_2_InNode_11 1
scalar BlockchainNetwork.iotNode[5] TrustOf_2_InNode_7 1
scalar BlockchainNetwork.iotNode[4] TrustOf_2_InNode_6 1
scalar BlockchainNetwork.iotNode[6] TrustOf_2_InNode_8 1
scalar BlockchainNetwork.iotNode[7] TrustOf_2_InNode_9 1
scalar BlockchainNetwork.iotNode[8] TrustOf_2_InNode_10 1
scalar BlockchainNetwork.iotNode[0] TrustOf_3_InNode_2 1
scalar BlockchainNetwork.iotNode[2] TrustOf_3_InNode_4 1
scalar BlockchainNetwork.iotNode[3] TrustOf_3_InNode_5 1
scalar BlockchainNetwork.iotNode[9] TrustOf_3_InNode_11 1
scalar BlockchainNetwork.iotNode[5] TrustOf_3_InNode_7 1
scalar BlockchainNetwork.iotNode[4] TrustOf_3_InNode_6 1
scalar BlockchainNetwork.iotNode[6] TrustOf_3_InNode_8 1
scalar BlockchainNetwork.iotNode[7] TrustOf_3_InNode_9 1
scalar BlockchainNetwork.iotNode[8] TrustOf_3_InNode_10 1
scalar BlockchainNetwork.iotNode[1] TrustOf_4_InNode_3 1
scalar BlockchainNetwork.iotNode[0] TrustOf_4_InNode_2 1
scalar BlockchainNetwork.iotNode[3] TrustOf_4_InNode_5 1
scalar BlockchainNetwork.iotNode[9] TrustOf_4_InNode_11 1
scalar BlockchainNetwork.iotNode[5] TrustOf_4_InNode_7 1
scalar BlockchainNetwork.iotNode[4] TrustOf_4_InNode_6 1
scalar BlockchainNetwork.iotNode[6] TrustOf_4_InNode_8 1
scalar BlockchainNetwork.iotNode[7] TrustOf_4_InNode_9 1
scalar BlockchainNetwork.iotNode[8] TrustOf_4_InNode_10 1
scalar BlockchainNetwork.iotNode[2] TrustOf_3_InNode_4 1
scalar BlockchainNetwork.iotNode[0] TrustOf_3_InNode_2 1
scalar BlockchainNetwork.iotNode[3] TrustOf_3_InNode_5 1
scalar BlockchainNetwork.iotNode[9] TrustOf_3_InNode_11 1
scalar BlockchainNetwork.iotNode[5] TrustOf_3_InNode_7 1
scalar BlockchainNetwork.iotNode[4] TrustOf_3_InNode_6 1
scalar BlockchainNetwork.iotNode[6] TrustOf_3_InNode_8 1
scalar BlockchainNetwork.iotNode[7] TrustOf_3_InNode_9 1
scalar BlockchainNetwork.iotNode[8] TrustOf_3_InNode_10 1
scalar BlockchainNetwork.iotNode[2] TrustOf_3_InNode_4 1
scalar BlockchainNetwork.iotNode[0] TrustOf_3_InNode_2 1
scalar BlockchainNetwork.iotNode[3] TrustOf_3_InNode_5 1
scalar BlockchainNetwork.iotNode[9] TrustOf_3_InNode_11 1
scalar BlockchainNetwork.iotNode[5] TrustOf_3_InNode_7 1
scalar BlockchainNetwork.iotNode[4] TrustOf_3_InNode_6 1
scalar BlockchainNetwork.iotNode[6] TrustOf_3_InNode_8 1
scalar BlockchainNetwork.iotNode[7] TrustOf_3_InNode_9 1
scalar BlockchainNetwork.iotNode[8] TrustOf_3_InNode_10 1
scalar BlockchainNetwork.iotNode[2] TrustOf_2_InNode_4 1
scalar BlockchainNetwork.iotNode[1] TrustOf_2_InNode_3 1
scalar BlockchainNetwork.iotNode[3] TrustOf_2_InNode_5 1
scalar BlockchainNetwork.iotNode[9] TrustOf_2_InNode_11 1
scalar BlockchainNetwork.iotNode[5] TrustOf_2_InNode_7 1
scalar BlockchainNetwork.iotNode[4] TrustOf_2_InNode_6 1
scalar BlockchainNetwork.iotNode[6] TrustOf_2_InNode_8 1
scalar BlockchainNetwork.iotNode[7] TrustOf_2_InNode_9 1
scalar BlockchainNetwork.iotNode[8] TrustOf_2_InNode_10 1
scalar BlockchainNetwork.iotNode[0] TrustOf_3_InNode_2 1
scalar BlockchainNetwork.iotNode[2] TrustOf_3_InNode_4 1
scalar BlockchainNetwork.iotNode[3] TrustOf_3_InNode_5 1
scalar BlockchainNetwork.iotNode[9] TrustOf_3_InNode_11 1
scalar BlockchainNetwork.iotNode[5] TrustOf_3_InNode_7 1
scalar BlockchainNetwork.iotNode[4] TrustOf_3_InNode_6 1
scalar BlockchainNetwork.iotNode[6] TrustOf_3_InNode_8 1
scalar BlockchainNetwork.iotNode[7] TrustOf_3_InNode_9 1
scalar BlockchainNetwork.iotNode[8] TrustOf_3_InNode_10 1
scalar BlockchainNetwork.iotNode[1] TrustOf_2_InNode_3 1
scalar BlockchainNetwork.iotNode[2] TrustOf_2_InNode_4 1
scalar BlockchainNetwork.iotNode[3] TrustOf_2_InNode_5 1
scalar BlockchainNetwork.iotNode[9] TrustOf_2_InNode_11 1
scalar BlockchainNetwork.iotNode[5] TrustOf_2_InNode_7 1
scalar BlockchainNetwork.iotNode[4] TrustOf_2_InNode_6 1
scalar BlockchainNetwork.iotNode[6] TrustOf_2_InNode_8 1
scalar BlockchainNetwork.iotNode[7] TrustOf_2_InNode_9 1
scalar BlockchainNetwork.iotNode[8] TrustOf_2_InNode_10 1
scalar BlockchainNetwork.iotNode[1] TrustOf_2_InNode_3 1
scalar BlockchainNetwork.iotNode[2] TrustOf_2_InNode_4 1
scalar BlockchainNetwork.iotNode[3] TrustOf_2_InNode_5 1
scalar BlockchainNetwork.iotNode[9] TrustOf_2_InNode_11 1
scalar BlockchainNetwork.iotNode[5] TrustOf_2_InNode_7 1
scalar BlockchainNetwork.iotNode[4] TrustOf_2_InNode_6 1
scalar BlockchainNetwork.iotNode[6] TrustOf_2_InNode_8 1
scalar BlockchainNetwork.iotNode[7] TrustOf_2_InNode_9 1
scalar BlockchainNetwork.iotNode[8] TrustOf_2_InNode_10 1
scalar BlockchainNetwork.iotNode[1] TrustOf_5_InNode_3 1
scalar BlockchainNetwork.iotNode[0] TrustOf_5_InNode_2 1
scalar BlockchainNetwork.iotNode[2] TrustOf_5_InNode_4 1
scalar BlockchainNetwork.iotNode[9] TrustOf_5_InNode_11 1
scalar BlockchainNetwork.iotNode[5] TrustOf_5_InNode_7 1
scalar BlockchainNetwork.iotNode[4] TrustOf_5_InNode_6 1
scalar BlockchainNetwork.iotNode[6] TrustOf_5_InNode_8 1
scalar BlockchainNetwork.iotNode[7] TrustOf_5_InNode_9 1
scalar BlockchainNetwork.iotNode[8] TrustOf_5_InNode_10 1
scalar BlockchainNetwork.iotNode[2] TrustOf_5_InNode_4 1
scalar BlockchainNetwork.iotNode[1] TrustOf_5_InNode_3 1
scalar BlockchainNetwork.iotNode[0] TrustOf_5_InNode_2 1
scalar BlockchainNetwork.iotNode[9] TrustOf_5_InNode_11 1
scalar BlockchainNetwork.iotNode[4] TrustOf_5_InNode_6 1
scalar BlockchainNetwork.iotNode[5] TrustOf_5_InNode_7 1
scalar BlockchainNetwork.iotNode[6] TrustOf_5_InNode_8 1
scalar BlockchainNetwork.iotNode[7] TrustOf_5_InNode_9 1
scalar BlockchainNetwork.iotNode[8] TrustOf_5_InNode_10 1
scalar BlockchainNetwork.iotNode[1] TrustOf_2_InNode_3 1
scalar BlockchainNetwork.iotNode[2] TrustOf_2_InNode_4 1
scalar BlockchainNetwork.iotNode[3] TrustOf_2_InNode_5 1
scalar BlockchainNetwork.iotNode[9] TrustOf_2_InNode_11 1
scalar BlockchainNetwork.iotNode[4] TrustOf_2_InNode_6 1
scalar BlockchainNetwork.iotNode[5] TrustOf_2_InNode_7 1
scalar BlockchainNetwork.iotNode[6] TrustOf_2_InNode_8 1
scalar BlockchainNetwork.iotNode[7] TrustOf_2_InNode_9 1
scalar BlockchainNetwork.iotNode[8] TrustOf_2_InNode_10 1
scalar BlockchainNetwork.iotNode[0] TrustOf_3_InNode_2 1
scalar BlockchainNetwork.iotNode[2] TrustOf_3_InNode_4 1
scalar BlockchainNetwork.iotNode[3] TrustOf_3_InNode_5 1
scalar BlockchainNetwork.iotNode[9] TrustOf_3_InNode_11 1
scalar BlockchainNetwork.iotNode[4] TrustOf_3_InNode_6 1
scalar BlockchainNetwork.iotNode[8] TrustOf_3_InNode_10 1
scalar BlockchainNetwork.iotNode[5] TrustOf_3_InNode_7 1
scalar BlockchainNetwork.iotNode[6] TrustOf_3_InNode_8 1
scalar BlockchainNetwork.iotNode[7] TrustOf_3_InNode_9 1
scalar BlockchainNetwork.iotNode[2] TrustOf_3_InNode_4 1
scalar BlockchainNetwork.iotNode[0] TrustOf_3_InNode_2 1
scalar BlockchainNetwork.iotNode[3] TrustOf_3_InNode_5 1
scalar BlockchainNetwork.iotNode[9] TrustOf_3_InNode_11 1
scalar BlockchainNetwork.iotNode[4] TrustOf_3_InNode_6 1
scalar BlockchainNetwork.iotNode[8] TrustOf_3_InNode_10 1
scalar BlockchainNetwork.iotNode[5] TrustOf_3_InNode_7 1
scalar BlockchainNetwork.iotNode[6] TrustOf_3_InNode_8 1
scalar BlockchainNetwork.iotNode[7] TrustOf_3_InNode_9 1
scalar BlockchainNetwork.iotNode[1] TrustOf_2_InNode_3 1
scalar BlockchainNetwork.iotNode[2] TrustOf_2_InNode_4 1
scalar BlockchainNetwork.iotNode[3] TrustOf_2_InNode_5 1
scalar BlockchainNetwork.iotNode[9] TrustOf_2_InNode_11 1
scalar BlockchainNetwork.iotNode[4] TrustOf_2_InNode_6 1
scalar BlockchainNetwork.iotNode[8] TrustOf_2_InNode_10 1
scalar BlockchainNetwork.iotNode[5] TrustOf_2_InNode_7 1
scalar BlockchainNetwork.iotNode[6] TrustOf_2_InNode_8 1
scalar BlockchainNetwork.iotNode[7] TrustOf_2_InNode_9 1
scalar BlockchainNetwork.iotNode[1] TrustOf_10_InNode_3 1
scalar BlockchainNetwork.iotNode[0] TrustOf_10_InNode_2 1
scalar BlockchainNetwork.iotNode[2] TrustOf_10_InNode_4 1
scalar BlockchainNetwork.iotNode[3] TrustOf_10_InNode_5 1
scalar BlockchainNetwork.iotNode[9] TrustOf_10_InNode_11 1
scalar BlockchainNetwork.iotNode[4] TrustOf_10_InNode_6 1
scalar BlockchainNetwork.iotNode[5] TrustOf_10_InNode_7 1
scalar BlockchainNetwork.iotNode[6] TrustOf_10_InNode_8 1
scalar BlockchainNetwork.iotNode[7] TrustOf_10_InNode_9 1
scalar BlockchainNetwork.iotNode[1] TrustOf_2_InNode_3 1
scalar BlockchainNetwork.iotNode[2] TrustOf_2_InNode_4 1
scalar BlockchainNetwork.iotNode[3] TrustOf_2_InNode_5 1
scalar BlockchainNetwork.iotNode[9] TrustOf_2_InNode_11 1
scalar BlockchainNetwork.iotNode[8] TrustOf_2_InNode_10 1
scalar BlockchainNetwork.iotNode[4] TrustOf_2_InNode_6 1
scalar BlockchainNetwork.iotNode[5] TrustOf_2_InNode_7 1
scalar BlockchainNetwork.iotNode[6] TrustOf_2_InNode_8 1
scalar BlockchainNetwork.iotNode[7] TrustOf_2_InNode_9 1
scalar BlockchainNetwork.iotNode[0] TrustOf_3_InNode_2 1
scalar BlockchainNetwork.iotNode[2] TrustOf_3_InNode_4 1
scalar BlockchainNetwork.iotNode[3] TrustOf_3_InNode_5 1
scalar BlockchainNetwork.iotNode[9] TrustOf_3_InNode_11 1
scalar BlockchainNetwork.iotNode[8] TrustOf_3_InNode_10 1
scalar BlockchainNetwork.iotNode[4] TrustOf_3_InNode_6 1
scalar BlockchainNetwork.iotNode[5] TrustOf_3_InNode_7 1
scalar BlockchainNetwork.iotNode[6] TrustOf_3_InNode_8 1
scalar BlockchainNetwork.iotNode[7] TrustOf_3_InNode_9 1
scalar BlockchainNetwork.iotNode[0] AverageBadServicesAt_30 0
scalar BlockchainNetwork.iotNode[1] AverageBadServicesAt_30 0
scalar BlockchainNetwork.iotNode[2] AverageBadServicesAt_30 0
scalar BlockchainNetwork.iotNode[3] AverageBadServicesAt_30 0
scalar BlockchainNetwork.iotNode[4] AverageBadServicesAt_30 0
scalar BlockchainNetwork.iotNode[5] AverageBadServicesAt_30 0
scalar BlockchainNetwork.iotNode[6] AverageBadServicesAt_30 0
scalar BlockchainNetwork.iotNode[7] AverageBadServicesAt_30 0
scalar BlockchainNetwork.iotNode[8] AverageBadServicesAt_30 0
scalar BlockchainNetwork.iotNode[9] AverageBadServicesAt_30 0
scalar BlockchainNetwork.iotNode[0] TrustOf_5_InNode_2 1
scalar BlockchainNetwork.iotNode[1] TrustOf_5_InNode_3 1
scalar BlockchainNetwork.iotNode[2] TrustOf_5_InNode_4 1
scalar BlockchainNetwork.iotNode[9] TrustOf_5_InNode_11 1
scalar BlockchainNetwork.iotNode[8] TrustOf_5_InNode_10 1
scalar BlockchainNetwork.iotNode[4] TrustOf_5_InNode_6 1
scalar BlockchainNetwork.iotNode[5] TrustOf_5_InNode_7 1
scalar BlockchainNetwork.iotNode[6] TrustOf_5_InNode_8 1
scalar BlockchainNetwork.iotNode[7] TrustOf_5_InNode_9 1
scalar BlockchainNetwork.iotNode[3] TrustOf_4_InNode_5 1
scalar BlockchainNetwork.iotNode[1] TrustOf_4_InNode_3 1
scalar BlockchainNetwork.iotNode[0] TrustOf_4_InNode_2 1
scalar BlockchainNetwork.iotNode[9] TrustOf_4_InNode_11 1
scalar BlockchainNetwork.iotNode[4] TrustOf_4_InNode_6 1
scalar BlockchainNetwork.iotNode[8] TrustOf_4_InNode_10 1
scalar BlockchainNetwork.iotNode[5] TrustOf_4_InNode_7 1
scalar BlockchainNetwork.iotNode[6] TrustOf_4_InNode_8 1
scalar BlockchainNetwork.iotNode[7] TrustOf_4_InNode_9 1
scalar BlockchainNetwork.iotNode[0] TrustOf_3_InNode_2 1
scalar BlockchainNetwork.iotNode[3] TrustOf_3_InNode_5 1
scalar BlockchainNetwork.iotNode[2] TrustOf_3_InNode_4 1
scalar BlockchainNetwork.iotNode[9] TrustOf_3_InNode_11 1
scalar BlockchainNetwork.iotNode[4] TrustOf_3_InNode_6 1
scalar BlockchainNetwork.iotNode[8] TrustOf_3_InNode_10 1
scalar BlockchainNetwork.iotNode[5] TrustOf_3_InNode_7 1
scalar BlockchainNetwork.iotNode[6] TrustOf_3_InNode_8 1
scalar BlockchainNetwork.iotNode[7] TrustOf_3_InNode_9 1
scalar BlockchainNetwork.iotNode[3] TrustOf_2_InNode_5 1
scalar BlockchainNetwork.iotNode[1] TrustOf_2_InNode_3 1
scalar BlockchainNetwork.iotNode[2] TrustOf_2_InNode_4 1
scalar BlockchainNetwork.iotNode[9] TrustOf_2_InNode_11 1
scalar BlockchainNetwork.iotNode[4] TrustOf_2_InNode_6 1
scalar BlockchainNetwork.iotNode[8] TrustOf_2_InNode_10 1
scalar BlockchainNetwork.iotNode[5] TrustOf_2_InNode_7 1
scalar BlockchainNetwork.iotNode[6] TrustOf_2_InNode_8 1
scalar BlockchainNetwork.iotNode[7] TrustOf_2_InNode_9 1
scalar BlockchainNetwork.iotNode[0] TrustOf_4_InNode_2 1
scalar BlockchainNetwork.iotNode[1] TrustOf_4_InNode_3 1
scalar BlockchainNetwork.iotNode[3] TrustOf_4_InNode_5 1
scalar BlockchainNetwork.iotNode[9] TrustOf_4_InNode_11 1
scalar BlockchainNetwork.iotNode[4] TrustOf_4_InNode_6 1
scalar BlockchainNetwork.iotNode[8] TrustOf_4_InNode_10 1
scalar BlockchainNetwork.iotNode[5] TrustOf_4_InNode_7 1
scalar BlockchainNetwork.iotNode[6] TrustOf_4_InNode_8 1
scalar BlockchainNetwork.iotNode[7] TrustOf_4_InNode_9 1
scalar BlockchainNetwork.iotNode[0] TrustOf_3_InNode_2 1
scalar BlockchainNetwork.iotNode[2] TrustOf_3_InNode_4 1
scalar BlockchainNetwork.iotNode[3] TrustOf_3_InNode_5 1
scalar BlockchainNetwork.iotNode[9] TrustOf_3_InNode_11 1
scalar BlockchainNetwork.iotNode[4] TrustOf_3_InNode_6 1
scalar BlockchainNetwork.iotNode[8] TrustOf_3_InNode_10 1
scalar BlockchainNetwork.iotNode[5] TrustOf_3_InNode_7 1
scalar BlockchainNetwork.iotNode[6] TrustOf_3_InNode_8 1
scalar BlockchainNetwork.iotNode[7] TrustOf_3_InNode_9 1
scalar BlockchainNetwork.iotNode[1] TrustOf_7_InNode_3 1
scalar BlockchainNetwork.iotNode[0] TrustOf_7_InNode_2 1
scalar BlockchainNetwork.iotNode[2] TrustOf_7_InNode_4 1
scalar BlockchainNetwork.iotNode[3] TrustOf_7_InNode_5 1
scalar BlockchainNetwork.iotNode[9] TrustOf_7_InNode_11 1
scalar BlockchainNetwork.iotNode[4] TrustOf_7_InNode_6 1
scalar BlockchainNetwork.iotNode[8] TrustOf_7_InNode_10 1
scalar BlockchainNetwork.iotNode[6] TrustOf_7_InNode_8 1
scalar BlockchainNetwork.iotNode[7] TrustOf_7_InNode_9 1
scalar BlockchainNetwork.iotNode[1] TrustOf_10_InNode_3 1
scalar BlockchainNetwork.iotNode[0] TrustOf_10_InNode_2 1
scalar BlockchainNetwork.iotNode[2] TrustOf_10_InNode_4 1
scalar BlockchainNetwork.iotNode[3] TrustOf_10_InNode_5 1
scalar BlockchainNetwork.iotNode[9] TrustOf_10_InNode_11 1
scalar BlockchainNetwork.iotNode[4] TrustOf_10_InNode_6 1
scalar BlockchainNetwork.iotNode[5] TrustOf_10_InNode_7 1
scalar BlockchainNetwork.iotNode[6] TrustOf_10_InNode_8 1
scalar BlockchainNetwork.iotNode[7] TrustOf_10_InNode_9 1
scalar BlockchainNetwork.iotNode[1] TrustOf_4_InNode_3 1
scalar BlockchainNetwork.iotNode[0] TrustOf_4_InNode_2 1
scalar BlockchainNetwork.iotNode[3] TrustOf_4_InNode_5 1
scalar BlockchainNetwork.iotNode[8] TrustOf_4_InNode_10 1
scalar BlockchainNetwork.iotNode[9] TrustOf_4_InNode_11 1
scalar BlockchainNetwork.iotNode[4] TrustOf_4_InNode_6 1
scalar BlockchainNetwork.iotNode[5] TrustOf_4_InNode_7 1
scalar BlockchainNetwork.iotNode[6] TrustOf_4_InNode_8 1
scalar BlockchainNetwork.iotNode[7] TrustOf_4_InNode_9 1
scalar BlockchainNetwork.iotNode[2] TrustOf_3_InNode_4 1
scalar BlockchainNetwork.iotNode[0] TrustOf_3_InNode_2 1
scalar BlockchainNetwork.iotNode[3] TrustOf_3_InNode_5 1
scalar BlockchainNetwork.iotNode[8] TrustOf_3_InNode_10 1
scalar BlockchainNetwork.iotNode[9] TrustOf_3_InNode_11 1
scalar BlockchainNetwork.iotNode[4] TrustOf_3_InNode_6 1
scalar BlockchainNetwork.iotNode[5] TrustOf_3_InNode_7 1
scalar BlockchainNetwork.iotNode[6] TrustOf_3_InNode_8 1
scalar BlockchainNetwork.iotNode[7] TrustOf_3_InNode_9 1
scalar BlockchainNetwork.iotNode[1] TrustOf_4_InNode_3 1
scalar BlockchainNetwork.iotNode[0] TrustOf_4_InNode_2 1
scalar BlockchainNetwork.iotNode[3] TrustOf_4_InNode_5 1
scalar BlockchainNetwork.iotNode[8] TrustOf_4_InNode_10 1
scalar BlockchainNetwork.iotNode[9] TrustOf_4_InNode_11 1
scalar BlockchainNetwork.iotNode[4] TrustOf_4_InNode_6 1
scalar BlockchainNetwork.iotNode[5] TrustOf_4_InNode_7 1
scalar BlockchainNetwork.iotNode[6] TrustOf_4_InNode_8 1
scalar BlockchainNetwork.iotNode[7] TrustOf_4_InNode_9 1
scalar BlockchainNetwork.iotNode[1] TrustOf_2_InNode_3 1
scalar BlockchainNetwork.iotNode[2] TrustOf_2_InNode_4 1
scalar BlockchainNetwork.iotNode[3] TrustOf_2_InNode_5 1
scalar BlockchainNetwork.iotNode[8] TrustOf_2_InNode_10 1
scalar BlockchainNetwork.iotNode[9] TrustOf_2_InNode_11 1
scalar BlockchainNetwork.iotNode[4] TrustOf_2_InNode_6 1
scalar BlockchainNetwork.iotNode[5] TrustOf_2_InNode_7 1
scalar BlockchainNetwork.iotNode[6] TrustOf_2_InNode_8 1
scalar BlockchainNetwork.iotNode[7] TrustOf_2_InNode_9 1
scalar BlockchainNetwork.iotNode[0] TrustOf_4_InNode_2 1
scalar BlockchainNetwork.iotNode[1] TrustOf_4_InNode_3 1
scalar BlockchainNetwork.iotNode[3] TrustOf_4_InNode_5 1
scalar BlockchainNetwork.iotNode[8] TrustOf_4_InNode_10 1
scalar BlockchainNetwork.iotNode[9] TrustOf_4_InNode_11 1
scalar BlockchainNetwork.iotNode[4] TrustOf_4_InNode_6 1
scalar BlockchainNetwork.iotNode[5] TrustOf_4_InNode_7 1
scalar BlockchainNetwork.iotNode[6] TrustOf_4_InNode_8 1
scalar BlockchainNetwork.iotNode[7] TrustOf_4_InNode_9 1
scalar BlockchainNetwork.iotNode[1] TrustOf_4_InNode_3 1
scalar BlockchainNetwork.iotNode[0] TrustOf_4_InNode_2 1
scalar BlockchainNetwork.iotNode[3] TrustOf_4_InNode_5 1
scalar BlockchainNetwork.iotNode[8] TrustOf_4_InNode_10 1
scalar BlockchainNetwork.iotNode[9] TrustOf_4_InNode_11 1
scalar BlockchainNetwork.iotNode[4] TrustOf_4_InNode_6 1
scalar BlockchainNetwork.iotNode[5] TrustOf_4_InNode_7 1
scalar BlockchainNetwork.iotNode[6] TrustOf_4_InNode_8 1
scalar BlockchainNetwork.iotNode[7] TrustOf_4_InNode_9 1
scalar BlockchainNetwork.iotNode[2] TrustOf_2_InNode_4 1
scalar BlockchainNetwork.iotNode[1] TrustOf_2_InNode_3 1
scalar BlockchainNetwork.iotNode[3] TrustOf_2_InNode_5 1
scalar BlockchainNetwork.iotNode[8] TrustOf_2_InNode_10 1
scalar BlockchainNetwork.iotNode[9] TrustOf_2_InNode_11 1
scalar BlockchainNetwork.iotNode[4] TrustOf_2_InNode_6 1
scalar BlockchainNetwork.iotNode[5] TrustOf_2_InNode_7 1
scalar BlockchainNetwork.iotNode[6] TrustOf_2_InNode_8 1
scalar BlockchainNetwork.iotNode[7] TrustOf_2_InNode_9 1
scalar BlockchainNetwork.iotNode[0] TrustOf_3_InNode_2 1
scalar BlockchainNetwork.iotNode[2] TrustOf_3_InNode_4 1
scalar BlockchainNetwork.iotNode[3] TrustOf_3_InNode_5 1
scalar BlockchainNetwork.iotNode[8] TrustOf_3_InNode_10 1
scalar BlockchainNetwork.iotNode[9] TrustOf_3_InNode_11 1
scalar BlockchainNetwork.iotNode[4] TrustOf_3_InNode_6 1
scalar BlockchainNetwork.iotNode[5] TrustOf_3_InNode_7 1
scalar BlockchainNetwork.iotNode[7] TrustOf_3_InNode_9 1
scalar BlockchainNetwork.iotNode[6] TrustOf_3_InNode_8 1
scalar BlockchainNetwork.iotNode[0] TrustOf_5_InNode_2 1
scalar BlockchainNetwork.iotNode[1] TrustOf_5_InNode_3 1
scalar BlockchainNetwork.iotNode[2] TrustOf_5_InNode_4 1
scalar BlockchainNetwork.iotNode[8] TrustOf_5_InNode_10 1
scalar BlockchainNetwork.iotNode[9] TrustOf_5_InNode_11 1
scalar BlockchainNetwork.iotNode[4] TrustOf_5_InNode_6 1
scalar BlockchainNetwork.iotNode[5] TrustOf_5_InNode_7 1
scalar BlockchainNetwork.iotNode[7] TrustOf_5_InNode_9 1
scalar BlockchainNetwork.iotNode[6] TrustOf_5_InNode_8 1
scalar BlockchainNetwork.iotNode[2] TrustOf_5_InNode_4 1
scalar BlockchainNetwork.iotNode[1] TrustOf_5_InNode_3 1
scalar BlockchainNetwork.iotNode[0] TrustOf_5_InNode_2 1
scalar BlockchainNetwork.iotNode[8] TrustOf_5_InNode_10 1
scalar BlockchainNetwork.iotNode[9] TrustOf_5_InNode_11 1
scalar BlockchainNetwork.iotNode[4] TrustOf_5_InNode_6 1
scalar BlockchainNetwork.iotNode[5] TrustOf_5_InNode_7 1
scalar BlockchainNetwork.iotNode[7] TrustOf_5_InNode_9 1
scalar BlockchainNetwork.iotNode[6] TrustOf_5_InNode_8 1
scalar BlockchainNetwork.iotNode[1] TrustOf_5_InNode_3 1
scalar BlockchainNetwork.iotNode[0] TrustOf_5_InNode_2 1
scalar BlockchainNetwork.iotNode[2] TrustOf_5_InNode_4 1
scalar BlockchainNetwork.iotNode[8] TrustOf_5_InNode_10 1
scalar BlockchainNetwork.iotNode[9] TrustOf_5_InNode_11 1
scalar BlockchainNetwork.iotNode[4] TrustOf_5_InNode_6 1
scalar BlockchainNetwork.iotNode[5] TrustOf_5_InNode_7 1
scalar BlockchainNetwork.iotNode[7] TrustOf_5_InNode_9 1
scalar BlockchainNetwork.iotNode[6] TrustOf_5_InNode_8 1
scalar BlockchainNetwork.iotNode[0] AverageBadServicesAt_40 0
scalar BlockchainNetwork.iotNode[1] AverageBadServicesAt_40 0
scalar BlockchainNetwork.iotNode[2] AverageBadServicesAt_40 0
scalar BlockchainNetwork.iotNode[3] AverageBadServicesAt_40 0
scalar BlockchainNetwork.iotNode[4] AverageBadServicesAt_40 0
scalar BlockchainNetwork.iotNode[5] AverageBadServicesAt_40 0
scalar BlockchainNetwork.iotNode[6] AverageBadServicesAt_40 0
scalar BlockchainNetwork.iotNode[7] AverageBadServicesAt_40 0
scalar BlockchainNetwork.iotNode[8] AverageBadServicesAt_40 0
scalar BlockchainNetwork.iotNode[9] AverageBadServicesAt_40 0
scalar BlockchainNetwork.iotNode[3] TrustOf_7_InNode_5 1
scalar BlockchainNetwork.iotNode[1] TrustOf_7_InNode_3 1
scalar BlockchainNetwork.iotNode[0] TrustOf_7_InNode_2 1
scalar BlockchainNetwork.iotNode[2] TrustOf_7_InNode_4 1
scalar BlockchainNetwork.iotNode[8] TrustOf_7_InNode_10 1
scalar BlockchainNetwork.iotNode[9] TrustOf_7_InNode_11 1
scalar BlockchainNetwork.iotNode[4] TrustOf_7_InNode_6 1
scalar BlockchainNetwork.iotNode[7] TrustOf_7_InNode_9 1
scalar BlockchainNetwork.iotNode[6] TrustOf_7_InNode_8 1
scalar BlockchainNetwork.iotNode[0] TrustOf_5_InNode_2 1
scalar BlockchainNetwork.iotNode[1] TrustOf_5_InNode_3 1
scalar BlockchainNetwork.iotNode[2] TrustOf_5_InNode_4 1
scalar BlockchainNetwork.iotNode[8] TrustOf_5_InNode_10 1
scalar BlockchainNetwork.iotNode[5] TrustOf_5_InNode_7 1
scalar BlockchainNetwork.iotNode[9] TrustOf_5_InNode_11 1
scalar BlockchainNetwork.iotNode[4] TrustOf_5_InNode_6 1
scalar BlockchainNetwork.iotNode[7] TrustOf_5_InNode_9 1
scalar BlockchainNetwork.iotNode[6] TrustOf_5_InNode_8 1
scalar BlockchainNetwork.iotNode[0] TrustOf_4_InNode_2 1
scalar BlockchainNetwork.iotNode[1] TrustOf_4_InNode_3 1
scalar BlockchainNetwork.iotNode[3] TrustOf_4_InNode_5 1
scalar BlockchainNetwork.iotNode[8] TrustOf_4_InNode_10 1
scalar BlockchainNetwork.iotNode[5] TrustOf_4_InNode_7 1
scalar BlockchainNetwork.iotNode[9] TrustOf_4_InNode_11 1
scalar BlockchainNetwork.iotNode[4] TrustOf_4_InNode_6 1
scalar BlockchainNetwork.iotNode[7] TrustOf_4_InNode_9 1
scalar BlockchainNetwork.iotNode[6] TrustOf_4_InNode_8 1
scalar BlockchainNetwork.iotNode[1] TrustOf_4_InNode_3 1
scalar BlockchainNetwork.iotNode[0] TrustOf_4_InNode_2 1
scalar BlockchainNetwork.iotNode[3] TrustOf_4_InNode_5 1
scalar BlockchainNetwork.iotNode[8] TrustOf_4_InNode_10 1
scalar BlockchainNetwork.iotNode[5] TrustOf_4_InNode_7 1
scalar BlockchainNetwork.iotNode[9] TrustOf_4_InNode_11 1
scalar BlockchainNetwork.iotNode[4] TrustOf_4_InNode_6 1
scalar BlockchainNetwork.iotNode[7] TrustOf_4_InNode_9 1
scalar BlockchainNetwork.iotNode[6] TrustOf_4_InNode_8 1
scalar BlockchainNetwork.iotNode[1] TrustOf_2_InNode_3 1
scalar BlockchainNetwork.iotNode[2] TrustOf_2_InNode_4 1
scalar BlockchainNetwork.iotNode[3] TrustOf_2_InNode_5 1
scalar BlockchainNetwork.iotNode[8] TrustOf_2_InNode_10 1
scalar BlockchainNetwork.iotNode[5] TrustOf_2_InNode_7 1
scalar BlockchainNetwork.iotNode[9] TrustOf_2_InNode_11 1
scalar BlockchainNetwork.iotNode[4] TrustOf_2_InNode_6 1
scalar BlockchainNetwork.iotNode[7] TrustOf_2_InNode_9 1
scalar BlockchainNetwork.iotNode[6] TrustOf_2_InNode_8 1
scalar BlockchainNetwork.iotNode[0] TrustOf_3_InNode_2 1
scalar BlockchainNetwork.iotNode[2] TrustOf_3_InNode_4 1
scalar BlockchainNetwork.iotNode[3] TrustOf_3_InNode_5 1
scalar BlockchainNetwork.iotNode[8] TrustOf_3_InNode_10 1
scalar BlockchainNetwork.iotNode[5] TrustOf_3_InNode_7 1
scalar BlockchainNetwork.iotNode[9] TrustOf_3_InNode_11 1
scalar BlockchainNetwork.iotNode[4] TrustOf_3_InNode_6 1
scalar BlockchainNetwork.iotNode[7] TrustOf_3_InNode_9 1
scalar BlockchainNetwork.iotNode[6] TrustOf_3_InNode_8 1
scalar BlockchainNetwork.iotNode[0] TrustOf_4_InNode_2 1
scalar BlockchainNetwork.iotNode[1] TrustOf_4_InNode_3 1
scalar BlockchainNetwork.iotNode[3] TrustOf_4_InNode_5 1
scalar BlockchainNetwork.iotNode[8] TrustOf_4_InNode_10 1
scalar BlockchainNetwork.iotNode[5] TrustOf_4_InNode_7 1
scalar BlockchainNetwork.iotNode[9] TrustOf_4_InNode_11 1
scalar BlockchainNetwork.iotNode[4] TrustOf_4_InNode_6 1
scalar BlockchainNetwork.iotNode[7] TrustOf_4_InNode_9 1
scalar BlockchainNetwork.iotNode[6] TrustOf_4_InNode_8 1
scalar BlockchainNetwork.iotNode[1] TrustOf_5_InNode_3 1
scalar BlockchainNetwork.iotNode[0] TrustOf_5_InNode_2 1
scalar BlockchainNetwork.iotNode[2] TrustOf_5_InNode_4 1
scalar BlockchainNetwork.iotNode[8] TrustOf_5_InNode_10 1
scalar BlockchainNetwork.iotNode[5] TrustOf_5_InNode_7 1
scalar BlockchainNetwork.iotNode[9] TrustOf_5_InNode_11 1
scalar BlockchainNetwork.iotNode[4] TrustOf_5_InNode_6 1
scalar BlockchainNetwork.iotNode[7] TrustOf_5_InNode_9 1
scalar BlockchainNetwork.iotNode[6] TrustOf_5_InNode_8 1
scalar BlockchainNetwork.iotNode[1] TrustOf_2_InNode_3 1
scalar BlockchainNetwork.iotNode[2] TrustOf_2_InNode_4 1
scalar BlockchainNetwork.iotNode[3] TrustOf_2_InNode_5 1
scalar BlockchainNetwork.iotNode[8] TrustOf_2_InNode_10 1
scalar BlockchainNetwork.iotNode[5] TrustOf_2_InNode_7 1
scalar BlockchainNetwork.iotNode[9] TrustOf_2_InNode_11 1
scalar BlockchainNetwork.iotNode[4] TrustOf_2_InNode_6 1
scalar BlockchainNetwork.iotNode[7] TrustOf_2_InNode_9 1
scalar BlockchainNetwork.iotNode[6] TrustOf_2_InNode_8 1
scalar BlockchainNetwork.iotNode[0] TrustOf_3_InNode_2 1
scalar BlockchainNetwork.iotNode[2] TrustOf_3_InNode_4 1
scalar BlockchainNetwork.iotNode[3] TrustOf_3_InNode_5 1
scalar BlockchainNetwork.iotNode[8] TrustOf_3_InNode_10 1
scalar BlockchainNetwork.iotNode[5] TrustOf_3_InNode_7 1
scalar BlockchainNetwork.iotNode[9] TrustOf_3_InNode_11 1
scalar BlockchainNetwork.iotNode[4] TrustOf_3_InNode_6 1
scalar BlockchainNetwork.iotNode[7] TrustOf_3_InNode_9 1
scalar BlockchainNetwork.iotNode[6] TrustOf_3_InNode_8 1
scalar BlockchainNetwork.iotNode[1] TrustOf_4_InNode_3 1
scalar BlockchainNetwork.iotNode[0] TrustOf_4_InNode_2 1
scalar BlockchainNetwork.iotNode[3] TrustOf_4_InNode_5 1
scalar BlockchainNetwork.iotNode[8] TrustOf_4_InNode_10 1
scalar BlockchainNetwork.iotNode[5] TrustOf_4_InNode_7 1
scalar BlockchainNetwork.iotNode[9] TrustOf_4_InNode_11 1
scalar BlockchainNetwork.iotNode[4] TrustOf_4_InNode_6 1
scalar BlockchainNetwork.iotNode[7] TrustOf_4_InNode_9 1
scalar BlockchainNetwork.iotNode[6] TrustOf_4_InNode_8 1
scalar BlockchainNetwork.iotNode[1] TrustOf_2_InNode_3 1
scalar BlockchainNetwork.iotNode[2] TrustOf_2_InNode_4 1
scalar BlockchainNetwork.iotNode[3] TrustOf_2_InNode_5 1
scalar BlockchainNetwork.iotNode[8] TrustOf_2_InNode_10 1
scalar BlockchainNetwork.iotNode[5] TrustOf_2_InNode_7 1
scalar BlockchainNetwork.iotNode[9] TrustOf_2_InNode_11 1
scalar BlockchainNetwork.iotNode[4] TrustOf_2_InNode_6 1
scalar BlockchainNetwork.iotNode[7] TrustOf_2_InNode_9 1
scalar BlockchainNetwork.iotNode[6] TrustOf_2_InNode_8 1
scalar BlockchainNetwork.iotNode[0] TrustOf_3_InNode_2 1
scalar BlockchainNetwork.iotNode[2] TrustOf_3_InNode_4 1
scalar BlockchainNetwork.iotNode[3] TrustOf_3_InNode_5 1
scalar BlockchainNetwork.iotNode[8] TrustOf_3_InNode_10 1
scalar BlockchainNetwork.iotNode[5] TrustOf_3_InNode_7 1
scalar BlockchainNetwork.iotNode[9] TrustOf_3_InNode_11 1
scalar BlockchainNetwork.iotNode[4] TrustOf_3_InNode_6 1
scalar BlockchainNetwork.iotNode[7] TrustOf_3_InNode_9 1
scalar BlockchainNetwork.iotNode[6] TrustOf_3_InNode_8 1
scalar BlockchainNetwork.iotNode[0] TrustOf_5_InNode_2 1
scalar BlockchainNetwork.iotNode[1] TrustOf_5_InNode_3 1
scalar BlockchainNetwork.iotNode[2] TrustOf_5_InNode_4 1
scalar BlockchainNetwork.iotNode[8] TrustOf_5_InNode_10 1
scalar BlockchainNetwork.iotNode[5] TrustOf_5_InNode_7 1
scalar BlockchainNetwork.iotNode[9] TrustOf_5_InNode_11 1
scalar BlockchainNetwork.iotNode[4] TrustOf_5_InNode_6 1
scalar BlockchainNetwork.iotNode[7] TrustOf_5_InNode_9 1
scalar BlockchainNetwork.iotNode[6] TrustOf_5_InNode_8 1
scalar BlockchainNetwork.iotNode[2] TrustOf_3_InNode_4 1
scalar BlockchainNetwork.iotNode[0] TrustOf_3_InNode_2 1
scalar BlockchainNetwork.iotNode[3] TrustOf_3_InNode_5 1
scalar BlockchainNetwork.iotNode[8] TrustOf_3_InNode_10 1
scalar BlockchainNetwork.iotNode[5] TrustOf_3_InNode_7 1
scalar BlockchainNetwork.iotNode[9] TrustOf_3_InNode_11 1
scalar BlockchainNetwork.iotNode[4] TrustOf_3_InNode_6 1
scalar BlockchainNetwork.iotNode[7] TrustOf_3_InNode_9 1
scalar BlockchainNetwork.iotNode[6] TrustOf_3_InNode_8 1
scalar BlockchainNetwork.iotNode[0] TrustOf_3_InNode_2 1
scalar BlockchainNetwork.iotNode[2] TrustOf_3_InNode_4 1
scalar BlockchainNetwork.iotNode[3] TrustOf_3_InNode_5 1
scalar BlockchainNetwork.iotNode[8] TrustOf_3_InNode_10 1
scalar BlockchainNetwork.iotNode[5] TrustOf_3_InNode_7 1
scalar BlockchainNetwork.iotNode[9] TrustOf_3_InNode_11 1
scalar BlockchainNetwork.iotNode[4] TrustOf_3_InNode_6 1
scalar BlockchainNetwork.iotNode[7] TrustOf_3_InNode_9 1
scalar BlockchainNetwork.iotNode[6] TrustOf_3_InNode_8 1
scalar BlockchainNetwork.iotNode[0] TrustOf_5_InNode_2 1
scalar BlockchainNetwork.iotNode[1] TrustOf_5_InNode_3 1
scalar BlockchainNetwork.iotNode[2] TrustOf_5_InNode_4 1
scalar BlockchainNetwork.iotNode[8] TrustOf_5_InNode_10 1
scalar BlockchainNetwork.iotNode[5] TrustOf_5_InNode_7 1
scalar BlockchainNetwork.iotNode[9] TrustOf_5_InNode_11 1
scalar BlockchainNetwork.iotNode[4] TrustOf_5_InNode_6 1
scalar BlockchainNetwork.iotNode[7] TrustOf_5_InNode_9 1
scalar BlockchainNetwork.iotNode[6] TrustOf_5_InNode_8 1
scalar BlockchainNetwork.iotNode[3] TrustOf_7_InNode_5 1
scalar BlockchainNetwork.iotNode[1] TrustOf_7_InNode_3 1
scalar BlockchainNetwork.iotNode[0] TrustOf_7_InNode_2 1
scalar BlockchainNetwork.iotNode[2] TrustOf_7_InNode_4 1
scalar BlockchainNetwork.iotNode[8] TrustOf_7_InNode_10 1
scalar BlockchainNetwork.iotNode[9] TrustOf_7_InNode_11 1
scalar BlockchainNetwork.iotNode[4] TrustOf_7_InNode_6 1
scalar BlockchainNetwork.iotNode[7] TrustOf_7_InNode_9 1
scalar BlockchainNetwork.iotNode[6] TrustOf_7_InNode_8 1
scalar BlockchainNetwork.iotNode[0] TrustOf_4_InNode_2 1
scalar BlockchainNetwork.iotNode[1] TrustOf_4_InNode_3 1
scalar BlockchainNetwork.iotNode[3] TrustOf_4_InNode_5 1
scalar BlockchainNetwork.iotNode[5] TrustOf_4_InNode_7 1
scalar BlockchainNetwork.iotNode[8] TrustOf_4_InNode_10 1
scalar BlockchainNetwork.iotNode[9] TrustOf_4_InNode_11 1
scalar BlockchainNetwork.iotNode[4] TrustOf_4_InNode_6 1
scalar BlockchainNetwork.iotNode[7] TrustOf_4_InNode_9 1
scalar BlockchainNetwork.iotNode[6] TrustOf_4_InNode_8 1
scalar BlockchainNetwork.iotNode[2] TrustOf_5_InNode_4 1
scalar BlockchainNetwork.iotNode[1] TrustOf_5_InNode_3 1
scalar BlockchainNetwork.iotNode[0] TrustOf_5_InNode_2 1
scalar BlockchainNetwork.iotNode[5] TrustOf_5_InNode_7 1
scalar BlockchainNetwork.iotNode[8] TrustOf_5_InNode_10 1
scalar BlockchainNetwork.iotNode[9] TrustOf_5_InNode_11 1
scalar BlockchainNetwork.iotNode[4] TrustOf_5_InNode_6 1
scalar BlockchainNetwork.iotNode[7] TrustOf_5_InNode_9 1
scalar BlockchainNetwork.iotNode[6] TrustOf_5_InNode_8 1
scalar BlockchainNetwork.iotNode[1] TrustOf_4_InNode_3 1
scalar BlockchainNetwork.iotNode[0] TrustOf_4_InNode_2 1
scalar BlockchainNetwork.iotNode[3] TrustOf_4_InNode_5 1
scalar BlockchainNetwork.iotNode[5] TrustOf_4_InNode_7 1
scalar BlockchainNetwork.iotNode[8] TrustOf_4_InNode_10 1
scalar BlockchainNetwork.iotNode[9] TrustOf_4_InNode_11 1
scalar BlockchainNetwork.iotNode[4] TrustOf_4_InNode_6 1
scalar BlockchainNetwork.iotNode[7] TrustOf_4_InNode_9 1
scalar BlockchainNetwork.iotNode[6] TrustOf_4_InNode_8 1
scalar BlockchainNetwork.iotNode[1] TrustOf_4_InNode_3 1
scalar BlockchainNetwork.iotNode[0] TrustOf_4_InNode_2 1
scalar BlockchainNetwork.iotNode[3] TrustOf_4_InNode_5 1
scalar BlockchainNetwork.iotNode[5] TrustOf_4_InNode_7 1
scalar BlockchainNetwork.iotNode[8] TrustOf_4_InNode_10 1
scalar BlockchainNetwork.iotNode[9] TrustOf_4_InNode_11 1
scalar BlockchainNetwork.iotNode[4] TrustOf_4_InNode_6 1
scalar BlockchainNetwork.iotNode[7] TrustOf_4_InNode_9 1
scalar BlockchainNetwork.iotNode[6] TrustOf_4_InNode_8 1
scalar BlockchainNetwork.iotNode[2] TrustOf_3_InNode_4 1
scalar BlockchainNetwork.iotNode[0] TrustOf_3_InNode_2 1
scalar BlockchainNetwork.iotNode[3] TrustOf_3_InNode_5 1
scalar BlockchainNetwork.iotNode[5] TrustOf_3_InNode_7 1
scalar BlockchainNetwork.iotNode[8] TrustOf_3_InNode_10 1
scalar BlockchainNetwork.iotNode[9] TrustOf_3_InNode_11 1
scalar BlockchainNetwork.iotNode[4] TrustOf_3_InNode_6 1
scalar BlockchainNetwork.iotNode[7] TrustOf_3_InNode_9 1
scalar BlockchainNetwork.iotNode[6] TrustOf_3_InNode_8 1
scalar BlockchainNetwork.iotNode[2] TrustOf_3_InNode_4 1
scalar BlockchainNetwork.iotNode[0] TrustOf_3_InNode_2 1
scalar BlockchainNetwork.iotNode[3] TrustOf_3_InNode_5 1
scalar BlockchainNetwork.iotNode[5] TrustOf_3_InNode_7 1
scalar BlockchainNetwork.iotNode[8] TrustOf_3_InNode_10 1
scalar BlockchainNetwork.iotNode[9] TrustOf_3_InNode_11 1
scalar BlockchainNetwork.iotNode[4] TrustOf_3_InNode_6 1
scalar BlockchainNetwork.iotNode[7] TrustOf_3_InNode_9 1
scalar BlockchainNetwork.iotNode[6] TrustOf_3_InNode_8 1
scalar BlockchainNetwork.iotNode[1] TrustOf_2_InNode_3 1
scalar BlockchainNetwork.iotNode[2] TrustOf_2_InNode_4 1
scalar BlockchainNetwork.iotNode[3] TrustOf_2_InNode_5 1
scalar BlockchainNetwork.iotNode[5] TrustOf_2_InNode_7 1
scalar BlockchainNetwork.iotNode[8] TrustOf_2_InNode_10 1
scalar BlockchainNetwork.iotNode[9] TrustOf_2_InNode_11 1
scalar BlockchainNetwork.iotNode[4] TrustOf_2_InNode_6 1
scalar BlockchainNetwork.iotNode[7] TrustOf_2_InNode_9 1
scalar BlockchainNetwork.iotNode[6] TrustOf_2_InNode_8 1
scalar BlockchainNetwork.iotNode[0] AverageBadServicesAt_50 0
scalar BlockchainNetwork.iotNode[1] AverageBadServicesAt_50 0
scalar BlockchainNetwork.iotNode[2] AverageBadServicesAt_50 0
scalar BlockchainNetwork.iotNode[3] AverageBadServicesAt_50 0
scalar BlockchainNetwork.iotNode[4] AverageBadServicesAt_50 0
scalar BlockchainNetwork.iotNode[5] AverageBadServicesAt_50 0
scalar BlockchainNetwork.iotNode[6] AverageBadServicesAt_50 0
scalar BlockchainNetwork.iotNode[7] AverageBadServicesAt_50 0
scalar BlockchainNetwork.iotNode[8] AverageBadServicesAt_50 0
scalar BlockchainNetwork.iotNode[9] AverageBadServicesAt_50 0
scalar BlockchainNetwork.iotNode[1] TrustOf_2_InNode_3 1
scalar BlockchainNetwork.iotNode[2] TrustOf_2_InNode_4 1
scalar BlockchainNetwork.iotNode[3] TrustOf_2_InNode_5 1
scalar BlockchainNetwork.iotNode[5] TrustOf_2_InNode_7 1
scalar BlockchainNetwork.iotNode[8] TrustOf_2_InNode_10 1
scalar BlockchainNetwork.iotNode[9] TrustOf_2_InNode_11 1
scalar BlockchainNetwork.iotNode[4] TrustOf_2_InNode_6 1
scalar BlockchainNetwork.iotNode[7] TrustOf_2_InNode_9 1
scalar BlockchainNetwork.iotNode[6] TrustOf_2_InNode_8 1
scalar BlockchainNetwork.iotNode[1] TrustOf_5_InNode_3 1
scalar BlockchainNetwork.iotNode[0] TrustOf_5_InNode_2 1
scalar BlockchainNetwork.iotNode[2] TrustOf_5_InNode_4 1
scalar BlockchainNetwork.iotNode[5] TrustOf_5_InNode_7 1
scalar BlockchainNetwork.iotNode[8] TrustOf_5_InNode_10 1
scalar BlockchainNetwork.iotNode[9] TrustOf_5_InNode_11 1
scalar BlockchainNetwork.iotNode[4] TrustOf_5_InNode_6 1
scalar BlockchainNetwork.iotNode[7] TrustOf_5_InNode_9 1
scalar BlockchainNetwork.iotNode[6] TrustOf_5_InNode_8 1
scalar BlockchainNetwork.iotNode[1] TrustOf_2_InNode_3 1
scalar BlockchainNetwork.iotNode[3] TrustOf_2_InNode_5 1
scalar BlockchainNetwork.iotNode[2] TrustOf_2_InNode_4 1
scalar BlockchainNetwork.iotNode[5] TrustOf_2_InNode_7 1
scalar BlockchainNetwork.iotNode[8] TrustOf_2_InNode_10 1
scalar BlockchainNetwork.iotNode[9] TrustOf_2_InNode_11 1
scalar BlockchainNetwork.iotNode[4] TrustOf_2_InNode_6 1
scalar BlockchainNetwork.iotNode[7] TrustOf_2_InNode_9 1
scalar BlockchainNetwork.iotNode[6] TrustOf_2_InNode_8 1
scalar BlockchainNetwork.iotNode[0] TrustOf_4_InNode_2 1
scalar BlockchainNetwork.iotNode[1] TrustOf_4_InNode_3 1
scalar BlockchainNetwork.iotNode[3] TrustOf_4_InNode_5 1
scalar BlockchainNetwork.iotNode[5] TrustOf_4_InNode_7 1
scalar BlockchainNetwork.iotNode[8] TrustOf_4_InNode_10 1
scalar BlockchainNetwork.iotNode[9] TrustOf_4_InNode_11 1
scalar BlockchainNetwork.iotNode[4] TrustOf_4_InNode_6 1
scalar BlockchainNetwork.iotNode[7] TrustOf_4_InNode_9 1
scalar BlockchainNetwork.iotNode[6] TrustOf_4_InNode_8 1
scalar BlockchainNetwork.iotNode[3] TrustOf_2_InNode_5 1
scalar BlockchainNetwork.iotNode[1] TrustOf_2_InNode_3 1
scalar BlockchainNetwork.iotNode[2] TrustOf_2_InNode_4 1
scalar BlockchainNetwork.iotNode[5] TrustOf_2_InNode_7 1
scalar BlockchainNetwork.iotNode[8] TrustOf_2_InNode_10 1
scalar BlockchainNetwork.iotNode[9] TrustOf_2_InNode_11 1
scalar BlockchainNetwork.iotNode[4] TrustOf_2_InNode_6 1
scalar BlockchainNetwork.iotNode[7] TrustOf_2_InNode_9 1
scalar BlockchainNetwork.iotNode[6] TrustOf_2_InNode_8 1
scalar BlockchainNetwork.iotNode[1] TrustOf_5_InNode_3 1
scalar BlockchainNetwork.iotNode[0] TrustOf_5_InNode_2 1
scalar BlockchainNetwork.iotNode[2] TrustOf_5_InNode_4 1
scalar BlockchainNetwork.iotNode[5] TrustOf_5_InNode_7 1
scalar BlockchainNetwork.iotNode[8] TrustOf_5_InNode_10 1
scalar BlockchainNetwork.iotNode[9] TrustOf_5_InNode_11 1
scalar BlockchainNetwork.iotNode[4] TrustOf_5_InNode_6 1
scalar BlockchainNetwork.iotNode[7] TrustOf_5_InNode_9 1
scalar BlockchainNetwork.iotNode[6] TrustOf_5_InNode_8 1
scalar BlockchainNetwork.iotNode[1] TrustOf_5_InNode_3 1
scalar BlockchainNetwork.iotNode[0] TrustOf_5_InNode_2 1
scalar BlockchainNetwork.iotNode[2] TrustOf_5_InNode_4 1
scalar BlockchainNetwork.iotNode[5] TrustOf_5_InNode_7 1
scalar BlockchainNetwork.iotNode[8] TrustOf_5_InNode_10 1
scalar BlockchainNetwork.iotNode[9] TrustOf_5_InNode_11 1
scalar BlockchainNetwork.iotNode[4] TrustOf_5_InNode_6 1
scalar BlockchainNetwork.iotNode[7] TrustOf_5_InNode_9 1
scalar BlockchainNetwork.iotNode[6] TrustOf_5_InNode_8 1
scalar BlockchainNetwork.iotNode[1] TrustOf_5_InNode_3 1
scalar BlockchainNetwork.iotNode[0] TrustOf_5_InNode_2 1
scalar BlockchainNetwork.iotNode[2] TrustOf_5_InNode_4 1
scalar BlockchainNetwork.iotNode[5] TrustOf_5_InNode_7 1
scalar BlockchainNetwork.iotNode[8] TrustOf_5_InNode_10 1
scalar BlockchainNetwork.iotNode[9] TrustOf_5_InNode_11 1
scalar BlockchainNetwork.iotNode[4] TrustOf_5_InNode_6 1
scalar BlockchainNetwork.iotNode[7] TrustOf_5_InNode_9 1
scalar BlockchainNetwork.iotNode[6] TrustOf_5_InNode_8 1
scalar BlockchainNetwork.iotNode[1] TrustOf_2_InNode_3 1
scalar BlockchainNetwork.iotNode[3] TrustOf_2_InNode_5 1
scalar BlockchainNetwork.iotNode[2] TrustOf_2_InNode_4 1
scalar BlockchainNetwork.iotNode[5] TrustOf_2_InNode_7 1
scalar BlockchainNetwork.iotNode[8] TrustOf_2_InNode_10 1
scalar BlockchainNetwork.iotNode[9] TrustOf_2_InNode_11 1
scalar BlockchainNetwork.iotNode[4] TrustOf_2_InNode_6 1
scalar BlockchainNetwork.iotNode[7] TrustOf_2_InNode_9 1
scalar BlockchainNetwork.iotNode[6] TrustOf_2_InNode_8 1
scalar BlockchainNetwork.iotNode[0] TrustOf_3_InNode_2 1
scalar BlockchainNetwork.iotNode[3] TrustOf_3_InNode_5 1
scalar BlockchainNetwork.iotNode[2] TrustOf_3_InNode_4 1
scalar BlockchainNetwork.iotNode[5] TrustOf_3_InNode_7 1
scalar BlockchainNetwork.iotNode[8] TrustOf_3_InNode_10 1
scalar BlockchainNetwork.iotNode[9] TrustOf_3_InNode_11 1
scalar BlockchainNetwork.iotNode[4] TrustOf_3_InNode_6 1
scalar BlockchainNetwork.iotNode[7] TrustOf_3_InNode_9 1
scalar BlockchainNetwork.iotNode[6] TrustOf_3_InNode_8 1
scalar BlockchainNetwork.iotNode[1] TrustOf_2_InNode_3 1
scalar BlockchainNetwork.iotNode[3] TrustOf_2_InNode_5 1
scalar BlockchainNetwork.iotNode[2] TrustOf_2_InNode_4 1
scalar BlockchainNetwork.iotNode[5] TrustOf_2_InNode_7 1
scalar BlockchainNetwork.iotNode[8] TrustOf_2_InNode_10 1
scalar BlockchainNetwork.iotNode[9] TrustOf_2_InNode_11 1
scalar BlockchainNetwork.iotNode[4] TrustOf_2_InNode_6 1
scalar BlockchainNetwork.iotNode[7] TrustOf_2_InNode_9 1
scalar BlockchainNetwork.iotNode[6] TrustOf_2_InNode_8 1
scalar BlockchainNetwork.iotNode[0] TrustOf_5_InNode_2 1
scalar BlockchainNetwork.iotNode[1] TrustOf_5_InNode_3 1
scalar BlockchainNetwork.iotNode[2] TrustOf_5_InNode_4 1
scalar BlockchainNetwork.iotNode[5] TrustOf_5_InNode_7 1
scalar BlockchainNetwork.iotNode[8] TrustOf_5_InNode_10 1
scalar BlockchainNetwork.iotNode[9] TrustOf_5_InNode_11 1
scalar BlockchainNetwork.iotNode[4] TrustOf_5_InNode_6 1
scalar BlockchainNetwork.iotNode[7] TrustOf_5_InNode_9 1
scalar BlockchainNetwork.iotNode[6] TrustOf_5_InNode_8 1
scalar BlockchainNetwork.iotNode[3] TrustOf_4_InNode_5 1
scalar BlockchainNetwork.iotNode[0] TrustOf_4_InNode_2 1
scalar BlockchainNetwork.iotNode[1] TrustOf_4_InNode_3 1
scalar BlockchainNetwork.iotNode[5] TrustOf_4_InNode_7 1
scalar BlockchainNetwork.iotNode[8] TrustOf_4_InNode_10 1
scalar BlockchainNetwork.iotNode[9] TrustOf_4_InNode_11 1
scalar BlockchainNetwork.iotNode[4] TrustOf_4_InNode_6 1
scalar BlockchainNetwork.iotNode[7] TrustOf_4_InNode_9 1
scalar BlockchainNetwork.iotNode[6] TrustOf_4_InNode_8 1
scalar BlockchainNetwork.iotNode[0] TrustOf_5_InNode_2 1
scalar BlockchainNetwork.iotNode[1] TrustOf_5_InNode_3 1
scalar BlockchainNetwork.iotNode[2] TrustOf_5_InNode_4 1
scalar BlockchainNetwork.iotNode[5] TrustOf_5_InNode_7 1
scalar BlockchainNetwork.iotNode[8] TrustOf_5_InNode_10 1
scalar BlockchainNetwork.iotNode[9] TrustOf_5_InNode_11 1
scalar BlockchainNetwork.iotNode[4] TrustOf_5_InNode_6 1
scalar BlockchainNetwork.iotNode[7] TrustOf_5_InNode_9 1
scalar BlockchainNetwork.iotNode[6] TrustOf_5_InNode_8 1
scalar BlockchainNetwork.iotNode[1] TrustOf_11_InNode_3 1
scalar BlockchainNetwork.iotNode[3] TrustOf_11_InNode_5 1
scalar BlockchainNetwork.iotNode[0] TrustOf_11_InNode_2 1
scalar BlockchainNetwork.iotNode[2] TrustOf_11_InNode_4 1
scalar BlockchainNetwork.iotNode[5] TrustOf_11_InNode_7 1
scalar BlockchainNetwork.iotNode[8] TrustOf_11_InNode_10 1
scalar BlockchainNetwork.iotNode[4] TrustOf_11_InNode_6 1
scalar BlockchainNetwork.iotNode[7] TrustOf_11_InNode_9 1
scalar BlockchainNetwork.iotNode[6] TrustOf_11_InNode_8 1
scalar BlockchainNetwork.iotNode[0] TrustOf_4_InNode_2 1
scalar BlockchainNetwork.iotNode[3] TrustOf_4_InNode_5 1
scalar BlockchainNetwork.iotNode[1] TrustOf_4_InNode_3 1
scalar BlockchainNetwork.iotNode[5] TrustOf_4_InNode_7 1
scalar BlockchainNetwork.iotNode[9] TrustOf_4_InNode_11 1
scalar BlockchainNetwork.iotNode[8] TrustOf_4_InNode_10 1
scalar BlockchainNetwork.iotNode[4] TrustOf_4_InNode_6 1
scalar BlockchainNetwork.iotNode[7] TrustOf_4_InNode_9 1
scalar BlockchainNetwork.iotNode[6] TrustOf_4_InNode_8 1
scalar BlockchainNetwork.iotNode[0] TrustOf_5_InNode_2 1
scalar BlockchainNetwork.iotNode[1] TrustOf_5_InNode_3 1
scalar BlockchainNetwork.iotNode[2] TrustOf_5_InNode_4 1
scalar BlockchainNetwork.iotNode[5] TrustOf_5_InNode_7 1
scalar BlockchainNetwork.iotNode[9] TrustOf_5_InNode_11 1
scalar BlockchainNetwork.iotNode[8] TrustOf_5_InNode_10 1
scalar BlockchainNetwork.iotNode[4] TrustOf_5_InNode_6 1
scalar BlockchainNetwork.iotNode[7] TrustOf_5_InNode_9 1
scalar BlockchainNetwork.iotNode[6] TrustOf_5_InNode_8 1
scalar BlockchainNetwork.iotNode[3] TrustOf_3_InNode_5 1
scalar BlockchainNetwork.iotNode[0] TrustOf_3_InNode_2 1
scalar BlockchainNetwork.iotNode[2] TrustOf_3_InNode_4 1
scalar BlockchainNetwork.iotNode[5] TrustOf_3_InNode_7 1
scalar BlockchainNetwork.iotNode[9] TrustOf_3_InNode_11 1
scalar BlockchainNetwork.iotNode[8] TrustOf_3_InNode_10 1
scalar BlockchainNetwork.iotNode[4] TrustOf_3_InNode_6 1
scalar BlockchainNetwork.iotNode[7] TrustOf_3_InNode_9 1
scalar BlockchainNetwork.iotNode[6] TrustOf_3_InNode_8 1
scalar BlockchainNetwork.iotNode[3] TrustOf_2_InNode_5 1
scalar BlockchainNetwork.iotNode[1] TrustOf_2_InNode_3 1
scalar BlockchainNetwork.iotNode[2] TrustOf_2_InNode_4 1
scalar BlockchainNetwork.iotNode[5] TrustOf_2_InNode_7 1
scalar BlockchainNetwork.iotNode[9] TrustOf_2_InNode_11 1
scalar BlockchainNetwork.iotNode[8] TrustOf_2_InNode_10 1
scalar BlockchainNetwork.iotNode[4] TrustOf_2_InNode_6 1
scalar BlockchainNetwork.iotNode[7] TrustOf_2_InNode_9 1
scalar BlockchainNetwork.iotNode[6] TrustOf_2_InNode_8 1
scalar BlockchainNetwork.iotNode[1] TrustOf_5_InNode_3 1
scalar BlockchainNetwork.iotNode[0] TrustOf_5_InNode_2 1
scalar BlockchainNetwork.iotNode[2] TrustOf_5_InNode_4 1
scalar BlockchainNetwork.iotNode[5] TrustOf_5_InNode_7 1
scalar BlockchainNetwork.iotNode[9] TrustOf_5_InNode_11 1
scalar BlockchainNetwork.iotNode[8] TrustOf_5_InNode_10 1
scalar BlockchainNetwork.iotNode[4] TrustOf_5_InNode_6 1
scalar BlockchainNetwork.iotNode[7] TrustOf_5_InNode_9 1
scalar BlockchainNetwork.iotNode[6] TrustOf_5_InNode_8 1
scalar BlockchainNetwork.iotNode[3] TrustOf_4_InNode_5 1
scalar BlockchainNetwork.iotNode[0] TrustOf_4_InNode_2 1
scalar BlockchainNetwork.iotNode[1] TrustOf_4_InNode_3 1
scalar BlockchainNetwork.iotNode[5] TrustOf_4_InNode_7 1
scalar BlockchainNetwork.iotNode[9] TrustOf_4_InNode_11 1
scalar BlockchainNetwork.iotNode[8] TrustOf_4_InNode_10 1
scalar BlockchainNetwork.iotNode[4] TrustOf_4_InNode_6 1
scalar BlockchainNetwork.iotNode[7] TrustOf_4_InNode_9 1
scalar BlockchainNetwork.iotNode[6] TrustOf_4_InNode_8 1
scalar BlockchainNetwork.iotNode[3] TrustOf_4_InNode_5 1
scalar BlockchainNetwork.iotNode[0] TrustOf_4_InNode_2 1
scalar BlockchainNetwork.iotNode[1] TrustOf_4_InNode_3 1
scalar BlockchainNetwork.iotNode[5] TrustOf_4_InNode_7 1
scalar BlockchainNetwork.iotNode[9] TrustOf_4_InNode_11 1
scalar BlockchainNetwork.iotNode[8] TrustOf_4_InNode_10 1
scalar BlockchainNetwork.iotNode[4] TrustOf_4_InNode_6 1
scalar BlockchainNetwork.iotNode[7] TrustOf_4_InNode_9 1
scalar BlockchainNetwork.iotNode[6] TrustOf_4_InNode_8 1
scalar BlockchainNetwork.iotNode[1] TrustOf_4_InNode_3 1
scalar BlockchainNetwork.iotNode[3] TrustOf_4_InNode_5 1
scalar BlockchainNetwork.iotNode[0] TrustOf_4_InNode_2 1
scalar BlockchainNetwork.iotNode[5] TrustOf_4_InNode_7 1
scalar BlockchainNetwork.iotNode[9] TrustOf_4_InNode_11 1
scalar BlockchainNetwork.iotNode[8] TrustOf_4_InNode_10 1
scalar BlockchainNetwork.iotNode[4] TrustOf_4_InNode_6 1
scalar BlockchainNetwork.iotNode[7] TrustOf_4_InNode_9 1
scalar BlockchainNetwork.iotNode[6] TrustOf_4_InNode_8 1
scalar BlockchainNetwork.iotNode[3] TrustOf_2_InNode_5 1
scalar BlockchainNetwork.iotNode[1] TrustOf_2_InNode_3 1
scalar BlockchainNetwork.iotNode[2] TrustOf_2_InNode_4 1
scalar BlockchainNetwork.iotNode[5] TrustOf_2_InNode_7 1
scalar BlockchainNetwork.iotNode[9] TrustOf_2_InNode_11 1
scalar BlockchainNetwork.iotNode[8] TrustOf_2_InNode_10 1
scalar BlockchainNetwork.iotNode[4] TrustOf_2_InNode_6 1
scalar BlockchainNetwork.iotNode[7] TrustOf_2_InNode_9 1
scalar BlockchainNetwork.iotNode[6] TrustOf_2_InNode_8 1
scalar BlockchainNetwork.iotNode[3] TrustOf_4_InNode_5 1
scalar BlockchainNetwork.iotNode[0] TrustOf_4_InNode_2 1
scalar BlockchainNetwork.iotNode[1] TrustOf_4_InNode_3 1
scalar BlockchainNetwork.iotNode[5] TrustOf_4_InNode_7 1
scalar BlockchainNetwork.iotNode[9] TrustOf_4_InNode_11 1
scalar BlockchainNetwork.iotNode[8] TrustOf_4_InNode_10 1
scalar BlockchainNetwork.iotNode[4] TrustOf_4_InNode_6 1
scalar BlockchainNetwork.iotNode[7] TrustOf_4_InNode_9 1
scalar BlockchainNetwork.iotNode[6] TrustOf_4_InNode_8 1
scalar BlockchainNetwork.iotNode[3] TrustOf_4_InNode_5 1
scalar BlockchainNetwork.iotNode[0] TrustOf_4_InNode_2 1
scalar BlockchainNetwork.iotNode[1] TrustOf_4_InNode_3 1
scalar BlockchainNetwork.iotNode[5] TrustOf_4_InNode_7 1
scalar BlockchainNetwork.iotNode[9] TrustOf_4_InNode_11 1
scalar BlockchainNetwork.iotNode[8] TrustOf_4_InNode_10 1
scalar BlockchainNetwork.iotNode[4] TrustOf_4_InNode_6 1
scalar BlockchainNetwork.iotNode[7] TrustOf_4_InNode_9 1
scalar BlockchainNetwork.iotNode[6] TrustOf_4_InNode_8 1
scalar BlockchainNetwork.iotNode[0] TrustOf_3_InNode_2 1
scalar BlockchainNetwork.iotNode[3] TrustOf_3_InNode_5 1
scalar BlockchainNetwork.iotNode[2] TrustOf_3_InNode_4 1
scalar BlockchainNetwork.iotNode[5] TrustOf_3_InNode_7 1
scalar BlockchainNetwork.iotNode[9] TrustOf_3_InNode_11 1
scalar BlockchainNetwork.iotNode[8] TrustOf_3_InNode_10 1
scalar BlockchainNetwork.iotNode[4] TrustOf_3_InNode_6 1
scalar BlockchainNetwork.iotNode[7] TrustOf_3_InNode_9 1
scalar BlockchainNetwork.iotNode[6] TrustOf_3_InNode_8 1
scalar BlockchainNetwork.iotNode[0] AverageBadServicesAt_60 0
scalar BlockchainNetwork.iotNode[1] AverageBadServicesAt_60 0
[...]
scalar BlockchainNetwork.iotNode[7] TrustOf_5_InNode_9 1
scalar BlockchainNetwork.iotNode[3] TrustOf_3_InNode_5 1
scalar BlockchainNetwork.iotNode[0] TrustOf_3_InNode_2 1
scalar BlockchainNetwork.iotNode[2] TrustOf_3_InNode_4 1
scalar BlockchainNetwork.iotNode[5] TrustOf_3_InNode_7 1
scalar BlockchainNetwork.iotNode[9] TrustOf_3_InNode_11 1
scalar BlockchainNetwork.iotNode[8] TrustOf_3_InNode_10 1
scalar BlockchainNetwork.iotNode[4] TrustOf_3_InNode_6 1
scalar BlockchainNetwork.iotNode[6] TrustOf_3_InNode_8 1
scalar BlockchainNetwork.iotNode[7] TrustOf_3_InNode_9 1
scalar BlockchainNetwork.iotNode[1] TrustOf_4_InNode_3 1
scalar BlockchainNetwork.iotNode[3] TrustOf_4_InNode_5 1
scalar BlockchainNetwork.iotNode[0] TrustOf_4_InNode_2 1
scalar BlockchainNetwork.iotNode[5] TrustOf_4_InNode_7 1
scalar BlockchainNetwork.iotNode[9] TrustOf_4_InNode_11 1
scalar BlockchainNetwork.iotNode[8] TrustOf_4_InNode_10 1
scalar BlockchainNetwork.iotNode[4] TrustOf_4_InNode_6 1
scalar BlockchainNetwork.iotNode[6] TrustOf_4_InNode_8 1
scalar BlockchainNetwork.iotNode[7] TrustOf_4_InNode_9 1
scalar BlockchainNetwork.iotNode[0] TrustOf_3_InNode_2 1
scalar BlockchainNetwork.iotNode[3] TrustOf_3_InNode_5 1
scalar BlockchainNetwork.iotNode[2] TrustOf_3_InNode_4 1
scalar BlockchainNetwork.iotNode[5] TrustOf_3_InNode_7 1
scalar BlockchainNetwork.iotNode[9] TrustOf_3_InNode_11 1
scalar BlockchainNetwork.iotNode[8] TrustOf_3_InNode_10 1
scalar BlockchainNetwork.iotNode[4] TrustOf_3_InNode_6 1
scalar BlockchainNetwork.iotNode[6] TrustOf_3_InNode_8 1
scalar BlockchainNetwork.iotNode[7] TrustOf_3_InNode_9 1
scalar BlockchainNetwork.iotNode[0] AverageBadServicesAt_140 0
scalar BlockchainNetwork.iotNode[1] AverageBadServicesAt_140 0
scalar BlockchainNetwork.iotNode[2] AverageBadServicesAt_140 0
scalar BlockchainNetwork.iotNode[3] AverageBadServicesAt_140 0
scalar BlockchainNetwork.iotNode[4] AverageBadServicesAt_140 0
scalar BlockchainNetwork.iotNode[5] AverageBadServicesAt_140 0
scalar BlockchainNetwork.iotNode[6] AverageBadServicesAt_140 0
scalar BlockchainNetwork.iotNode[7] AverageBadServicesAt_140 0
scalar BlockchainNetwork.iotNode[8] AverageBadServicesAt_140 0
scalar BlockchainNetwork.iotNode[9] AverageBadServicesAt_140 0
scalar BlockchainNetwork.iotNode[1] TrustOf_5_InNode_3 1
scalar BlockchainNetwork.iotNode[0] TrustOf_5_InNode_2 1
scalar BlockchainNetwork.iotNode[2] TrustOf_5_InNode_4 1
scalar BlockchainNetwork.iotNode[5] TrustOf_5_InNode_7 1
scalar BlockchainNetwork.iotNode[9] TrustOf_5_InNode_11 1
scalar BlockchainNetwork.iotNode[8] TrustOf_5_InNode_10 1
scalar BlockchainNetwork.iotNode[4] TrustOf_5_InNode_6 1
scalar BlockchainNetwork.iotNode[6] TrustOf_5_InNode_8 1
scalar BlockchainNetwork.iotNode[7] TrustOf_5_InNode_9 1
scalar BlockchainNetwork.iotNode[1] TrustOf_5_InNode_3 1
scalar BlockchainNetwork.iotNode[0] TrustOf_5_InNode_2 1
scalar BlockchainNetwork.iotNode[2] TrustOf_5_InNode_4 1
scalar BlockchainNetwork.iotNode[5] TrustOf_5_InNode_7 1
scalar BlockchainNetwork.iotNode[9] TrustOf_5_InNode_11 1
scalar BlockchainNetwork.iotNode[8] TrustOf_5_InNode_10 1
scalar BlockchainNetwork.iotNode[4] TrustOf_5_InNode_6 1
scalar BlockchainNetwork.iotNode[6] TrustOf_5_InNode_8 1
scalar BlockchainNetwork.iotNode[7] TrustOf_5_InNode_9 1
scalar BlockchainNetwork.iotNode[1] TrustOf_2_InNode_3 1
scalar BlockchainNetwork.iotNode[3] TrustOf_2_InNode_5 1
scalar BlockchainNetwork.iotNode[2] TrustOf_2_InNode_4 1
scalar BlockchainNetwork.iotNode[5] TrustOf_2_InNode_7 1
scalar BlockchainNetwork.iotNode[9] TrustOf_2_InNode_11 1
scalar BlockchainNetwork.iotNode[8] TrustOf_2_InNode_10 1
scalar BlockchainNetwork.iotNode[4] TrustOf_2_InNode_6 1
scalar BlockchainNetwork.iotNode[6] TrustOf_2_InNode_8 1
scalar BlockchainNetwork.iotNode[7] TrustOf_2_InNode_9 1
scalar BlockchainNetwork.iotNode[3] TrustOf_4_InNode_5 1
scalar BlockchainNetwork.iotNode[0] TrustOf_4_InNode_2 1
scalar BlockchainNetwork.iotNode[1] TrustOf_4_InNode_3 1
scalar BlockchainNetwork.iotNode[5] TrustOf_4_InNode_7 1
scalar BlockchainNetwork.iotNode[9] TrustOf_4_InNode_11 1
scalar BlockchainNetwork.iotNode[8] TrustOf_4_InNode_10 1
scalar BlockchainNetwork.iotNode[4] TrustOf_4_InNode_6 1
scalar BlockchainNetwork.iotNode[6] TrustOf_4_InNode_8 1
scalar BlockchainNetwork.iotNode[7] TrustOf_4_InNode_9 1
scalar BlockchainNetwork.iotNode[3] TrustOf_3_InNode_5 1
scalar BlockchainNetwork.iotNode[0] TrustOf_3_InNode_2 1
scalar BlockchainNetwork.iotNode[2] TrustOf_3_InNode_4 1
scalar BlockchainNetwork.iotNode[5] TrustOf_3_InNode_7 1
scalar BlockchainNetwork.iotNode[9] TrustOf_3_InNode_11 1
scalar BlockchainNetwork.iotNode[8] TrustOf_3_InNode_10 1
scalar BlockchainNetwork.iotNode[4] TrustOf_3_InNode_6 1
scalar BlockchainNetwork.iotNode[6] TrustOf_3_InNode_8 1
scalar BlockchainNetwork.iotNode[7] TrustOf_3_InNode_9 1
scalar BlockchainNetwork.iotNode[3] TrustOf_3_InNode_5 1
scalar BlockchainNetwork.iotNode[0] TrustOf_3_InNode_2 1
scalar BlockchainNetwork.iotNode[2] TrustOf_3_InNode_4 1
scalar BlockchainNetwork.iotNode[5] TrustOf_3_InNode_7 1
scalar BlockchainNetwork.iotNode[9] TrustOf_3_InNode_11 1
scalar BlockchainNetwork.iotNode[8] TrustOf_3_InNode_10 1
scalar BlockchainNetwork.iotNode[4] TrustOf_3_InNode_6 1
scalar BlockchainNetwork.iotNode[6] TrustOf_3_InNode_8 1
scalar BlockchainNetwork.iotNode[7] TrustOf_3_InNode_9 1
scalar BlockchainNetwork.iotNode[0] TrustOf_4_InNode_2 1
scalar BlockchainNetwork.iotNode[3] TrustOf_4_InNode_5 1
scalar BlockchainNetwork.iotNode[1] TrustOf_4_InNode_3 1
scalar BlockchainNetwork.iotNode[5] TrustOf_4_InNode_7 1
scalar BlockchainNetwork.iotNode[9] TrustOf_4_InNode_11 1
scalar BlockchainNetwork.iotNode[8] TrustOf_4_InNode_10 1
scalar BlockchainNetwork.iotNode[4] TrustOf_4_InNode_6 1
scalar BlockchainNetwork.iotNode[6] TrustOf_4_InNode_8 1
scalar BlockchainNetwork.iotNode[7] TrustOf_4_InNode_9 1
scalar BlockchainNetwork.iotNode[3] TrustOf_3_InNode_5 1
scalar BlockchainNetwork.iotNode[2] TrustOf_3_InNode_4 1
scalar BlockchainNetwork.iotNode[0] TrustOf_3_InNode_2 1
scalar BlockchainNetwork.iotNode[5] TrustOf_3_InNode_7 1
scalar BlockchainNetwork.iotNode[9] TrustOf_3_InNode_11 1
scalar BlockchainNetwork.iotNode[8] TrustOf_3_InNode_10 1
scalar BlockchainNetwork.iotNode[4] TrustOf_3_InNode_6 1
scalar BlockchainNetwork.iotNode[6] TrustOf_3_InNode_8 1
scalar BlockchainNetwork.iotNode[7] TrustOf_3_InNode_9 1
scalar BlockchainNetwork.iotNode[3] TrustOf_4_InNode_5 1
scalar BlockchainNetwork.iotNode[1] TrustOf_4_InNode_3 1
scalar BlockchainNetwork.iotNode[0] TrustOf_4_InNode_2 1
scalar BlockchainNetwork.iotNode[5] TrustOf_4_InNode_7 1
scalar BlockchainNetwork.iotNode[9] TrustOf_4_InNode_11 1
scalar BlockchainNetwork.iotNode[8] TrustOf_4_InNode_10 1
scalar BlockchainNetwork.iotNode[4] TrustOf_4_InNode_6 1
scalar BlockchainNetwork.iotNode[6] TrustOf_4_InNode_8 1
scalar BlockchainNetwork.iotNode[7] TrustOf_4_InNode_9 1
scalar BlockchainNetwork.iotNode[1] TrustOf_5_InNode_3 1
scalar BlockchainNetwork.iotNode[2] TrustOf_5_InNode_4 1
scalar BlockchainNetwork.iotNode[0] TrustOf_5_InNode_2 1
scalar BlockchainNetwork.iotNode[5] TrustOf_5_InNode_7 1
scalar BlockchainNetwork.iotNode[9] TrustOf_5_InNode_11 1
scalar BlockchainNetwork.iotNode[8] TrustOf_5_InNode_10 1
scalar BlockchainNetwork.iotNode[4] TrustOf_5_InNode_6 1
scalar BlockchainNetwork.iotNode[6] TrustOf_5_InNode_8 1
scalar BlockchainNetwork.iotNode[7] TrustOf_5_InNode_9 1
scalar BlockchainNetwork.iotNode[3] TrustOf_4_InNode_5 1
scalar BlockchainNetwork.iotNode[1] TrustOf_4_InNode_3 1
scalar BlockchainNetwork.iotNode[0] TrustOf_4_InNode_2 1
scalar BlockchainNetwork.iotNode[5] TrustOf_4_InNode_7 1
scalar BlockchainNetwork.iotNode[9] TrustOf_4_InNode_11 1
scalar BlockchainNetwork.iotNode[8] TrustOf_4_InNode_10 1
scalar BlockchainNetwork.iotNode[4] TrustOf_4_InNode_6 1
scalar BlockchainNetwork.iotNode[6] TrustOf_4_InNode_8 1
scalar BlockchainNetwork.iotNode[7] TrustOf_4_InNode_9 1
scalar BlockchainNetwork.iotNode[3] TrustOf_3_InNode_5 1
scalar BlockchainNetwork.iotNode[2] TrustOf_3_InNode_4 1
scalar BlockchainNetwork.iotNode[0] TrustOf_3_InNode_2 1
scalar BlockchainNetwork.iotNode[5] TrustOf_3_InNode_7 1
scalar BlockchainNetwork.iotNode[9] TrustOf_3_InNode_11 1
scalar BlockchainNetwork.iotNode[8] TrustOf_3_InNode_10 1
scalar BlockchainNetwork.iotNode[4] TrustOf_3_InNode_6 1
scalar BlockchainNetwork.iotNode[6] TrustOf_3_InNode_8 1
scalar BlockchainNetwork.iotNode[7] TrustOf_3_InNode_9 1
scalar BlockchainNetwork.iotNode[1] TrustOf_2_InNode_3 1
scalar BlockchainNetwork.iotNode[3] TrustOf_2_InNode_5 1
scalar BlockchainNetwork.iotNode[2] TrustOf_2_InNode_4 1
scalar BlockchainNetwork.iotNode[5] TrustOf_2_InNode_7 1
scalar BlockchainNetwork.iotNode[9] TrustOf_2_InNode_11 1
scalar BlockchainNetwork.iotNode[8] TrustOf_2_InNode_10 1
scalar BlockchainNetwork.iotNode[4] TrustOf_2_InNode_6 1
scalar BlockchainNetwork.iotNode[6] TrustOf_2_InNode_8 1
scalar BlockchainNetwork.iotNode[7] TrustOf_2_InNode_9 1
scalar BlockchainNetwork.iotNode[3] TrustOf_4_InNode_5 1
scalar BlockchainNetwork.iotNode[1] TrustOf_4_InNode_3 1
scalar BlockchainNetwork.iotNode[0] TrustOf_4_InNode_2 1
scalar BlockchainNetwork.iotNode[5] TrustOf_4_InNode_7 1
scalar BlockchainNetwork.iotNode[9] TrustOf_4_InNode_11 1
scalar BlockchainNetwork.iotNode[8] TrustOf_4_InNode_10 1
scalar BlockchainNetwork.iotNode[4] TrustOf_4_InNode_6 1
scalar BlockchainNetwork.iotNode[6] TrustOf_4_InNode_8 1
scalar BlockchainNetwork.iotNode[7] TrustOf_4_InNode_9 1
scalar BlockchainNetwork.iotNode[1] TrustOf_5_InNode_3 1
scalar BlockchainNetwork.iotNode[2] TrustOf_5_InNode_4 1
scalar BlockchainNetwork.iotNode[0] TrustOf_5_InNode_2 1
scalar BlockchainNetwork.iotNode[5] TrustOf_5_InNode_7 1
scalar BlockchainNetwork.iotNode[9] TrustOf_5_InNode_11 1
scalar BlockchainNetwork.iotNode[8] TrustOf_5_InNode_10 1
scalar BlockchainNetwork.iotNode[4] TrustOf_5_InNode_6 1
scalar BlockchainNetwork.iotNode[6] TrustOf_5_InNode_8 1
scalar BlockchainNetwork.iotNode[7] TrustOf_5_InNode_9 1
scalar BlockchainNetwork.iotNode[2] TrustOf_3_InNode_4 1
scalar BlockchainNetwork.iotNode[3] TrustOf_3_InNode_5 1
scalar BlockchainNetwork.iotNode[0] TrustOf_3_InNode_2 1
scalar BlockchainNetwork.iotNode[5] TrustOf_3_InNode_7 1
scalar BlockchainNetwork.iotNode[9] TrustOf_3_InNode_11 1
scalar BlockchainNetwork.iotNode[8] TrustOf_3_InNode_10 1
scalar BlockchainNetwork.iotNode[4] TrustOf_3_InNode_6 1
scalar BlockchainNetwork.iotNode[6] TrustOf_3_InNode_8 1
scalar BlockchainNetwork.iotNode[7] TrustOf_3_InNode_9 1
scalar BlockchainNetwork.iotNode[3] TrustOf_2_InNode_5 1
scalar BlockchainNetwork.iotNode[1] TrustOf_2_InNode_3 1
scalar BlockchainNetwork.iotNode[2] TrustOf_2_InNode_4 1
scalar BlockchainNetwork.iotNode[5] TrustOf_2_InNode_7 1
scalar BlockchainNetwork.iotNode[9] TrustOf_2_InNode_11 1
scalar BlockchainNetwork.iotNode[8] TrustOf_2_InNode_10 1
scalar BlockchainNetwork.iotNode[4] TrustOf_2_InNode_6 1
scalar BlockchainNetwork.iotNode[6] TrustOf_2_InNode_8 1
scalar BlockchainNetwork.iotNode[7] TrustOf_2_InNode_9 1
scalar BlockchainNetwork.iotNode[1] TrustOf_4_InNode_3 1
scalar BlockchainNetwork.iotNode[3] TrustOf_4_InNode_5 1
scalar BlockchainNetwork.iotNode[0] TrustOf_4_InNode_2 1
scalar BlockchainNetwork.iotNode[5] TrustOf_4_InNode_7 1
scalar BlockchainNetwork.iotNode[9] TrustOf_4_InNode_11 1
scalar BlockchainNetwork.iotNode[8] TrustOf_4_InNode_10 1
scalar BlockchainNetwork.iotNode[4] TrustOf_4_InNode_6 1
scalar BlockchainNetwork.iotNode[6] TrustOf_4_InNode_8 1
scalar BlockchainNetwork.iotNode[7] TrustOf_4_InNode_9 1
scalar BlockchainNetwork.iotNode[3] TrustOf_4_InNode_5 1
scalar BlockchainNetwork.iotNode[1] TrustOf_4_InNode_3 1
scalar BlockchainNetwork.iotNode[0] TrustOf_4_InNode_2 1
scalar BlockchainNetwork.iotNode[5] TrustOf_4_InNode_7 1
scalar BlockchainNetwork.iotNode[9] TrustOf_4_InNode_11 1
scalar BlockchainNetwork.iotNode[8] TrustOf_4_InNode_10 1
scalar BlockchainNetwork.iotNode[4] TrustOf_4_InNode_6 1
scalar BlockchainNetwork.iotNode[6] TrustOf_4_InNode_8 1
scalar BlockchainNetwork.iotNode[7] TrustOf_4_InNode_9 1
scalar BlockchainNetwork.iotNode[2] TrustOf_2_InNode_4 1
scalar BlockchainNetwork.iotNode[3] TrustOf_2_InNode_5 1
scalar BlockchainNetwork.iotNode[1] TrustOf_2_InNode_3 1
scalar BlockchainNetwork.iotNode[5] TrustOf_2_InNode_7 1
scalar BlockchainNetwork.iotNode[9] TrustOf_2_InNode_11 1
scalar BlockchainNetwork.iotNode[8] TrustOf_2_InNode_10 1
scalar BlockchainNetwork.iotNode[4] TrustOf_2_InNode_6 1
scalar BlockchainNetwork.iotNode[6] TrustOf_2_InNode_8 1
scalar BlockchainNetwork.iotNode[7] TrustOf_2_InNode_9 1
scalar BlockchainNetwork.iotNode[3] TrustOf_2_InNode_5 1
scalar BlockchainNetwork.iotNode[2] TrustOf_2_InNode_4 1
scalar BlockchainNetwork.iotNode[1] TrustOf_2_InNode_3 1
scalar BlockchainNetwork.iotNode[5] TrustOf_2_InNode_7 1
scalar BlockchainNetwork.iotNode[9] TrustOf_2_InNode_11 1
scalar BlockchainNetwork.iotNode[8] TrustOf_2_InNode_10 1
scalar BlockchainNetwork.iotNode[4] TrustOf_2_InNode_6 1
scalar BlockchainNetwork.iotNode[6] TrustOf_2_InNode_8 1
scalar BlockchainNetwork.iotNode[7] TrustOf_2_InNode_9 1
scalar BlockchainNetwork.iotNode[1] TrustOf_5_InNode_3 1
scalar BlockchainNetwork.iotNode[2] TrustOf_5_InNode_4 1
scalar BlockchainNetwork.iotNode[0] TrustOf_5_InNode_2 1
scalar BlockchainNetwork.iotNode[5] TrustOf_5_InNode_7 1
scalar BlockchainNetwork.iotNode[9] TrustOf_5_InNode_11 1
scalar BlockchainNetwork.iotNode[8] TrustOf_5_InNode_10 1
scalar BlockchainNetwork.iotNode[4] TrustOf_5_InNode_6 1
scalar BlockchainNetwork.iotNode[6] TrustOf_5_InNode_8 1
scalar BlockchainNetwork.iotNode[7] TrustOf_5_InNode_9 1
scalar BlockchainNetwork.iotNode[2] TrustOf_3_InNode_4 1
scalar BlockchainNetwork.iotNode[3] TrustOf_3_InNode_5 1
scalar BlockchainNetwork.iotNode[0] TrustOf_3_InNode_2 1
scalar BlockchainNetwork.iotNode[5] TrustOf_3_InNode_7 1
scalar BlockchainNetwork.iotNode[9] TrustOf_3_InNode_11 1
scalar BlockchainNetwork.iotNode[8] TrustOf_3_InNode_10 1
scalar BlockchainNetwork.iotNode[4] TrustOf_3_InNode_6 1
scalar BlockchainNetwork.iotNode[6] TrustOf_3_InNode_8 1
scalar BlockchainNetwork.iotNode[7] TrustOf_3_InNode_9 1
scalar BlockchainNetwork.iotNode[1] TrustOf_5_InNode_3 1
scalar BlockchainNetwork.iotNode[2] TrustOf_5_InNode_4 1
scalar BlockchainNetwork.iotNode[0] TrustOf_5_InNode_2 1
scalar BlockchainNetwork.iotNode[5] TrustOf_5_InNode_7 1
scalar BlockchainNetwork.iotNode[9] TrustOf_5_InNode_11 1
scalar BlockchainNetwork.iotNode[8] TrustOf_5_InNode_10 1
scalar BlockchainNetwork.iotNode[4] TrustOf_5_InNode_6 1
scalar BlockchainNetwork.iotNode[6] TrustOf_5_InNode_8 1
scalar BlockchainNetwork.iotNode[7] TrustOf_5_InNode_9 1
scalar BlockchainNetwork.iotNode[3] TrustOf_3_InNode_5 1
scalar BlockchainNetwork.iotNode[2] TrustOf_3_InNode_4 1
scalar BlockchainNetwork.iotNode[0] TrustOf_3_InNode_2 1
scalar BlockchainNetwork.iotNode[5] TrustOf_3_InNode_7 1
scalar BlockchainNetwork.iotNode[9] TrustOf_3_InNode_11 1
scalar BlockchainNetwork.iotNode[8] TrustOf_3_InNode_10 1
scalar BlockchainNetwork.iotNode[4] TrustOf_3_InNode_6 1
scalar BlockchainNetwork.iotNode[6] TrustOf_3_InNode_8 1
scalar BlockchainNetwork.iotNode[7] TrustOf_3_InNode_9 1
scalar BlockchainNetwork.iotNode[1] TrustOf_5_InNode_3 1
scalar BlockchainNetwork.iotNode[2] TrustOf_5_InNode_4 1
scalar BlockchainNetwork.iotNode[0] TrustOf_5_InNode_2 1
scalar BlockchainNetwork.iotNode[5] TrustOf_5_InNode_7 1
scalar BlockchainNetwork.iotNode[9] TrustOf_5_InNode_11 1
scalar BlockchainNetwork.iotNode[8] TrustOf_5_InNode_10 1
scalar BlockchainNetwork.iotNode[4] TrustOf_5_InNode_6 1
scalar BlockchainNetwork.iotNode[6] TrustOf_5_InNode_8 1
scalar BlockchainNetwork.iotNode[7] TrustOf_5_InNode_9 1
scalar BlockchainNetwork.iotNode[1] TrustOf_5_InNode_3 1
scalar BlockchainNetwork.iotNode[2] TrustOf_5_InNode_4 1
scalar BlockchainNetwork.iotNode[0] TrustOf_5_InNode_2 1
scalar BlockchainNetwork.iotNode[5] TrustOf_5_InNode_7 1
scalar BlockchainNetwork.iotNode[9] TrustOf_5_InNode_11 1
scalar BlockchainNetwork.iotNode[8] TrustOf_5_InNode_10 1
scalar BlockchainNetwork.iotNode[4] TrustOf_5_InNode_6 1
scalar BlockchainNetwork.iotNode[6] TrustOf_5_InNode_8 1
scalar BlockchainNetwork.iotNode[7] TrustOf_5_InNode_9 1
scalar BlockchainNetwork.iotNode[0] AverageBadServicesAt_150 0
scalar BlockchainNetwork.iotNode[1] AverageBadServicesAt_150 0
scalar BlockchainNetwork.iotNode[2] AverageBadServicesAt_150 0
scalar BlockchainNetwork.iotNode[3] AverageBadServicesAt_150 0
scalar BlockchainNetwork.iotNode[4] AverageBadServicesAt_150 0
scalar BlockchainNetwork.iotNode[5] AverageBadServicesAt_150 0
scalar BlockchainNetwork.iotNode[6] AverageBadServicesAt_150 0
scalar BlockchainNetwork.iotNode[7] AverageBadServicesAt_150 0
scalar BlockchainNetwork.iotNode[8] AverageBadServicesAt_150 0
scalar BlockchainNetwork.iotNode[9] AverageBadServicesAt_150 0
par BlockchainNetwork.iotNode[0] typename "\"src.IoTNode\""
par BlockchainNetwork.iotNode[0] maliciousNodePercentage 0
scalar BlockchainNetwork.iotNode[0] BestThreshold 0.5
scalar BlockchainNetwork.iotNode[0] BestF1Score 0
scalar BlockchainNetwork.iotNode[0] BestPrecision 0
scalar BlockchainNetwork.iotNode[0] BestRecall 0
scalar BlockchainNetwork.iotNode[0] BestAccuracy 0
scalar BlockchainNetwork.iotNode[0] FinalBadServicesReceived 0
scalar BlockchainNetwork.iotNode[0] FinalAverageBadServices 0
par BlockchainNetwork.iotNode[1] typename "\"src.IoTNode\""
par BlockchainNetwork.iotNode[1] maliciousNodePercentage 0
scalar BlockchainNetwork.iotNode[1] FinalBadServicesReceived 0
scalar BlockchainNetwork.iotNode[1] FinalAverageBadServices 0
par BlockchainNetwork.iotNode[2] typename "\"src.IoTNode\""
par BlockchainNetwork.iotNode[2] maliciousNodePercentage 0
scalar BlockchainNetwork.iotNode[2] FinalBadServicesReceived 0
scalar BlockchainNetwork.iotNode[2] FinalAverageBadServices 0
par BlockchainNetwork.iotNode[3] typename "\"src.IoTNode\""
par BlockchainNetwork.iotNode[3] maliciousNodePercentage 0
scalar BlockchainNetwork.iotNode[3] FinalBadServicesReceived 0
scalar BlockchainNetwork.iotNode[3] FinalAverageBadServices 0
par BlockchainNetwork.iotNode[4] typename "\"src.IoTNode\""
par BlockchainNetwork.iotNode[4] maliciousNodePercentage 0
scalar BlockchainNetwork.iotNode[4] FinalBadServicesReceived 0
scalar BlockchainNetwork.iotNode[4] FinalAverageBadServices 0
par BlockchainNetwork.iotNode[5] typename "\"src.IoTNode\""
par BlockchainNetwork.iotNode[5] maliciousNodePercentage 0
scalar BlockchainNetwork.iotNode[5] FinalBadServicesReceived 0
scalar BlockchainNetwork.iotNode[5] FinalAverageBadServices 0
par BlockchainNetwork.iotNode[6] typename "\"src.IoTNode\""
par BlockchainNetwork.iotNode[6] maliciousNodePercentage 0
scalar BlockchainNetwork.iotNode[6] FinalBadServicesReceived 0
scalar BlockchainNetwork.iotNode[6] FinalAverageBadServices 0
par BlockchainNetwork.iotNode[7] typename "\"src.IoTNode\""
par BlockchainNetwork.iotNode[7] maliciousNodePercentage 0
scalar BlockchainNetwork.iotNode[7] FinalBadServicesReceived 0
scalar BlockchainNetwork.iotNode[7] FinalAverageBadServices 0
par BlockchainNetwork.iotNode[8] typename "\"src.IoTNode\""
par BlockchainNetwork.iotNode[8] maliciousNodePercentage 0
scalar BlockchainNetwork.iotNode[8] FinalBadServicesReceived 0
scalar BlockchainNetwork.iotNode[8] FinalAverageBadServices 0
par BlockchainNetwork.iotNode[9] typename "\"src.IoTNode\""
par BlockchainNetwork.iotNode[9] maliciousNodePercentage 0
scalar BlockchainNetwork.iotNode[9] FinalBadServicesReceived 0
scalar BlockchainNetwork.iotNode[9] FinalAverageBadServices 0
par BlockchainNetwork typename "\"src.BlockchainNetwork\""
par BlockchainNetwork numNodes 10
par BlockchainNetwork maliciousNodePercentage 0

