version 3
run General-0-20250818-14:21:49-25144
attr configname General
attr datetime 20250818-14:21:49
attr datetimef 20250818-142149
attr experiment General
attr inifile omnetpp.ini
attr iterationvars ""
attr iterationvarsd ""
attr iterationvarsf ""
attr measurement ""
attr network BlockchainNetwork
attr processid 25144
attr repetition 0
attr replication #0
attr resultdir results
attr runnumber 0
attr seedset 0
config network BlockchainNetwork
config *.iotNode*.inoutGateSize 10
config sim-time-limit 1100s
config *.iotNode*.serviceInterval "uniform(1, 5)"
config *.numNodes 100
config **.maliciousNodePercentage 0.3
config **.clusterCount 10
config **.clusterSize "int(numNodes / clusterCount)"
config **.attackerType 1

scalar BlockchainNetwork.iotNode[0] AverageBadServicesAt_10 0.91428571428571
scalar BlockchainNetwork.iotNode[1] AverageBadServicesAt_10 0.91428571428571
scalar BlockchainNetwork.iotNode[2] AverageBadServicesAt_10 0.91428571428571
scalar BlockchainNetwork.iotNode[3] AverageBadServicesAt_10 0.91428571428571
scalar BlockchainNetwork.iotNode[4] AverageBadServicesAt_10 0.91428571428571
scalar BlockchainNetwork.iotNode[5] AverageBadServicesAt_10 0.91428571428571
scalar BlockchainNetwork.iotNode[6] AverageBadServicesAt_10 0.91428571428571
scalar BlockchainNetwork.iotNode[7] AverageBadServicesAt_10 0.91428571428571
scalar BlockchainNetwork.iotNode[8] AverageBadServicesAt_10 0.91428571428571
scalar BlockchainNetwork.iotNode[9] AverageBadServicesAt_10 0.91428571428571
scalar BlockchainNetwork.iotNode[10] AverageBadServicesAt_10 0.91428571428571
scalar BlockchainNetwork.iotNode[11] AverageBadServicesAt_10 0.91428571428571
scalar BlockchainNetwork.iotNode[12] AverageBadServicesAt_10 0.91428571428571
scalar BlockchainNetwork.iotNode[13] AverageBadServicesAt_10 0.91428571428571
scalar BlockchainNetwork.iotNode[14] AverageBadServicesAt_10 0.91428571428571
scalar BlockchainNetwork.iotNode[15] AverageBadServicesAt_10 0.91428571428571
scalar BlockchainNetwork.iotNode[16] AverageBadServicesAt_10 0.91428571428571
scalar BlockchainNetwork.iotNode[17] AverageBadServicesAt_10 0.91428571428571
scalar BlockchainNetwork.iotNode[18] AverageBadServicesAt_10 0.91428571428571
scalar BlockchainNetwork.iotNode[19] AverageBadServicesAt_10 0.91428571428571
scalar BlockchainNetwork.iotNode[20] AverageBadServicesAt_10 0.91428571428571
scalar BlockchainNetwork.iotNode[21] AverageBadServicesAt_10 0.91428571428571
scalar BlockchainNetwork.iotNode[22] AverageBadServicesAt_10 0.91428571428571
scalar BlockchainNetwork.iotNode[23] AverageBadServicesAt_10 0.91428571428571
scalar BlockchainNetwork.iotNode[24] AverageBadServicesAt_10 0.91428571428571
scalar BlockchainNetwork.iotNode[25] AverageBadServicesAt_10 0.91428571428571
scalar BlockchainNetwork.iotNode[26] AverageBadServicesAt_10 0.91428571428571
scalar BlockchainNetwork.iotNode[27] AverageBadServicesAt_10 0.91428571428571
scalar BlockchainNetwork.iotNode[28] AverageBadServicesAt_10 0.91428571428571
scalar BlockchainNetwork.iotNode[29] AverageBadServicesAt_10 0.91428571428571
scalar BlockchainNetwork.iotNode[30] AverageBadServicesAt_10 0.91428571428571
scalar BlockchainNetwork.iotNode[31] AverageBadServicesAt_10 0.91428571428571
scalar BlockchainNetwork.iotNode[32] AverageBadServicesAt_10 0.91428571428571
scalar BlockchainNetwork.iotNode[33] AverageBadServicesAt_10 0.91428571428571
scalar BlockchainNetwork.iotNode[34] AverageBadServicesAt_10 0.91428571428571
scalar BlockchainNetwork.iotNode[35] AverageBadServicesAt_10 0.91428571428571
scalar BlockchainNetwork.iotNode[36] AverageBadServicesAt_10 0.91428571428571
scalar BlockchainNetwork.iotNode[37] AverageBadServicesAt_10 0.91428571428571
scalar BlockchainNetwork.iotNode[38] AverageBadServicesAt_10 0.91428571428571
scalar BlockchainNetwork.iotNode[39] AverageBadServicesAt_10 0.91428571428571
scalar BlockchainNetwork.iotNode[40] AverageBadServicesAt_10 0.91428571428571
scalar BlockchainNetwork.iotNode[41] AverageBadServicesAt_10 0.91428571428571
scalar BlockchainNetwork.iotNode[42] AverageBadServicesAt_10 0.91428571428571
scalar BlockchainNetwork.iotNode[43] AverageBadServicesAt_10 0.91428571428571
scalar BlockchainNetwork.iotNode[44] AverageBadServicesAt_10 0.91428571428571
scalar BlockchainNetwork.iotNode[45] AverageBadServicesAt_10 0.91428571428571
scalar BlockchainNetwork.iotNode[46] AverageBadServicesAt_10 0.91428571428571
scalar BlockchainNetwork.iotNode[47] AverageBadServicesAt_10 0.91428571428571
scalar BlockchainNetwork.iotNode[48] AverageBadServicesAt_10 0.91428571428571
scalar BlockchainNetwork.iotNode[49] AverageBadServicesAt_10 0.91428571428571
scalar BlockchainNetwork.iotNode[50] AverageBadServicesAt_10 0.91428571428571
scalar BlockchainNetwork.iotNode[51] AverageBadServicesAt_10 0.91428571428571
scalar BlockchainNetwork.iotNode[52] AverageBadServicesAt_10 0.91428571428571
scalar BlockchainNetwork.iotNode[53] AverageBadServicesAt_10 0.91428571428571
scalar BlockchainNetwork.iotNode[54] AverageBadServicesAt_10 0.91428571428571
scalar BlockchainNetwork.iotNode[55] AverageBadServicesAt_10 0.91428571428571
scalar BlockchainNetwork.iotNode[56] AverageBadServicesAt_10 0.91428571428571
scalar BlockchainNetwork.iotNode[57] AverageBadServicesAt_10 0.91428571428571
scalar BlockchainNetwork.iotNode[58] AverageBadServicesAt_10 0.91428571428571
scalar BlockchainNetwork.iotNode[59] AverageBadServicesAt_10 0.91428571428571
scalar BlockchainNetwork.iotNode[60] AverageBadServicesAt_10 0.91428571428571
scalar BlockchainNetwork.iotNode[61] AverageBadServicesAt_10 0.91428571428571
scalar BlockchainNetwork.iotNode[62] AverageBadServicesAt_10 0.91428571428571
scalar BlockchainNetwork.iotNode[63] AverageBadServicesAt_10 0.91428571428571
scalar BlockchainNetwork.iotNode[64] AverageBadServicesAt_10 0.91428571428571
scalar BlockchainNetwork.iotNode[65] AverageBadServicesAt_10 0.91428571428571
scalar BlockchainNetwork.iotNode[66] AverageBadServicesAt_10 0.91428571428571
scalar BlockchainNetwork.iotNode[67] AverageBadServicesAt_10 0.91428571428571
scalar BlockchainNetwork.iotNode[68] AverageBadServicesAt_10 0.91428571428571
scalar BlockchainNetwork.iotNode[69] AverageBadServicesAt_10 0.91428571428571
scalar BlockchainNetwork.iotNode[70] AverageBadServicesAt_10 0.91428571428571
scalar BlockchainNetwork.iotNode[71] AverageBadServicesAt_10 0.91428571428571
scalar BlockchainNetwork.iotNode[72] AverageBadServicesAt_10 0.91428571428571
scalar BlockchainNetwork.iotNode[73] AverageBadServicesAt_10 0.91428571428571
scalar BlockchainNetwork.iotNode[74] AverageBadServicesAt_10 0.91428571428571
scalar BlockchainNetwork.iotNode[75] AverageBadServicesAt_10 0.91428571428571
scalar BlockchainNetwork.iotNode[76] AverageBadServicesAt_10 0.91428571428571
scalar BlockchainNetwork.iotNode[77] AverageBadServicesAt_10 0.91428571428571
scalar BlockchainNetwork.iotNode[78] AverageBadServicesAt_10 0.91428571428571
scalar BlockchainNetwork.iotNode[79] AverageBadServicesAt_10 0.91428571428571
scalar BlockchainNetwork.iotNode[80] AverageBadServicesAt_10 0.91428571428571
scalar BlockchainNetwork.iotNode[81] AverageBadServicesAt_10 0.91428571428571
scalar BlockchainNetwork.iotNode[82] AverageBadServicesAt_10 0.91428571428571
scalar BlockchainNetwork.iotNode[83] AverageBadServicesAt_10 0.91428571428571
scalar BlockchainNetwork.iotNode[84] AverageBadServicesAt_10 0.91428571428571
scalar BlockchainNetwork.iotNode[85] AverageBadServicesAt_10 0.91428571428571
scalar BlockchainNetwork.iotNode[86] AverageBadServicesAt_10 0.91428571428571
scalar BlockchainNetwork.iotNode[87] AverageBadServicesAt_10 0.91428571428571
scalar BlockchainNetwork.iotNode[88] AverageBadServicesAt_10 0.91428571428571
scalar BlockchainNetwork.iotNode[89] AverageBadServicesAt_10 0.91428571428571
scalar BlockchainNetwork.iotNode[90] AverageBadServicesAt_10 0.91428571428571
scalar BlockchainNetwork.iotNode[91] AverageBadServicesAt_10 0.91428571428571
scalar BlockchainNetwork.iotNode[92] AverageBadServicesAt_10 0.91428571428571
scalar BlockchainNetwork.iotNode[93] AverageBadServicesAt_10 0.91428571428571
scalar BlockchainNetwork.iotNode[94] AverageBadServicesAt_10 0.91428571428571
scalar BlockchainNetwork.iotNode[95] AverageBadServicesAt_10 0.91428571428571
scalar BlockchainNetwork.iotNode[96] AverageBadServicesAt_10 0.91428571428571
scalar BlockchainNetwork.iotNode[97] AverageBadServicesAt_10 0.91428571428571
scalar BlockchainNetwork.iotNode[98] AverageBadServicesAt_10 0.91428571428571
scalar BlockchainNetwork.iotNode[99] AverageBadServicesAt_10 0.91428571428571
scalar BlockchainNetwork.iotNode[0] AverageBadServicesAt_20 1.5142857142857
scalar BlockchainNetwork.iotNode[1] AverageBadServicesAt_20 1.5142857142857
scalar BlockchainNetwork.iotNode[2] AverageBadServicesAt_20 1.5142857142857
scalar BlockchainNetwork.iotNode[3] AverageBadServicesAt_20 1.5142857142857
scalar BlockchainNetwork.iotNode[4] AverageBadServicesAt_20 1.5142857142857
scalar BlockchainNetwork.iotNode[5] AverageBadServicesAt_20 1.5142857142857
scalar BlockchainNetwork.iotNode[6] AverageBadServicesAt_20 1.5142857142857
scalar BlockchainNetwork.iotNode[7] AverageBadServicesAt_20 1.5142857142857
scalar BlockchainNetwork.iotNode[8] AverageBadServicesAt_20 1.5142857142857
scalar BlockchainNetwork.iotNode[9] AverageBadServicesAt_20 1.5142857142857
scalar BlockchainNetwork.iotNode[10] AverageBadServicesAt_20 1.5142857142857
scalar BlockchainNetwork.iotNode[11] AverageBadServicesAt_20 1.5142857142857
scalar BlockchainNetwork.iotNode[12] AverageBadServicesAt_20 1.5142857142857
scalar BlockchainNetwork.iotNode[13] AverageBadServicesAt_20 1.5142857142857
scalar BlockchainNetwork.iotNode[14] AverageBadServicesAt_20 1.5142857142857
scalar BlockchainNetwork.iotNode[15] AverageBadServicesAt_20 1.5142857142857
scalar BlockchainNetwork.iotNode[16] AverageBadServicesAt_20 1.5142857142857
scalar BlockchainNetwork.iotNode[17] AverageBadServicesAt_20 1.5142857142857
scalar BlockchainNetwork.iotNode[18] AverageBadServicesAt_20 1.5142857142857
scalar BlockchainNetwork.iotNode[19] AverageBadServicesAt_20 1.5142857142857
scalar BlockchainNetwork.iotNode[20] AverageBadServicesAt_20 1.5142857142857
scalar BlockchainNetwork.iotNode[21] AverageBadServicesAt_20 1.5142857142857
scalar BlockchainNetwork.iotNode[22] AverageBadServicesAt_20 1.5142857142857
scalar BlockchainNetwork.iotNode[23] AverageBadServicesAt_20 1.5142857142857
scalar BlockchainNetwork.iotNode[24] AverageBadServicesAt_20 1.5142857142857
scalar BlockchainNetwork.iotNode[25] AverageBadServicesAt_20 1.5142857142857
scalar BlockchainNetwork.iotNode[26] AverageBadServicesAt_20 1.5142857142857
scalar BlockchainNetwork.iotNode[27] AverageBadServicesAt_20 1.5142857142857
scalar BlockchainNetwork.iotNode[28] AverageBadServicesAt_20 1.5142857142857
scalar BlockchainNetwork.iotNode[29] AverageBadServicesAt_20 1.5142857142857
scalar BlockchainNetwork.iotNode[30] AverageBadServicesAt_20 1.5142857142857
scalar BlockchainNetwork.iotNode[31] AverageBadServicesAt_20 1.5142857142857
scalar BlockchainNetwork.iotNode[32] AverageBadServicesAt_20 1.5142857142857
scalar BlockchainNetwork.iotNode[33] AverageBadServicesAt_20 1.5142857142857
scalar BlockchainNetwork.iotNode[34] AverageBadServicesAt_20 1.5142857142857
scalar BlockchainNetwork.iotNode[35] AverageBadServicesAt_20 1.5142857142857
scalar BlockchainNetwork.iotNode[36] AverageBadServicesAt_20 1.5142857142857
scalar BlockchainNetwork.iotNode[37] AverageBadServicesAt_20 1.5142857142857
scalar BlockchainNetwork.iotNode[38] AverageBadServicesAt_20 1.5142857142857
scalar BlockchainNetwork.iotNode[39] AverageBadServicesAt_20 1.5142857142857
scalar BlockchainNetwork.iotNode[40] AverageBadServicesAt_20 1.5142857142857
scalar BlockchainNetwork.iotNode[41] AverageBadServicesAt_20 1.5142857142857
scalar BlockchainNetwork.iotNode[42] AverageBadServicesAt_20 1.5142857142857
scalar BlockchainNetwork.iotNode[43] AverageBadServicesAt_20 1.5142857142857
scalar BlockchainNetwork.iotNode[44] AverageBadServicesAt_20 1.5142857142857
scalar BlockchainNetwork.iotNode[45] AverageBadServicesAt_20 1.5142857142857
scalar BlockchainNetwork.iotNode[46] AverageBadServicesAt_20 1.5142857142857
scalar BlockchainNetwork.iotNode[47] AverageBadServicesAt_20 1.5142857142857
scalar BlockchainNetwork.iotNode[48] AverageBadServicesAt_20 1.5142857142857
scalar BlockchainNetwork.iotNode[49] AverageBadServicesAt_20 1.5142857142857
scalar BlockchainNetwork.iotNode[50] AverageBadServicesAt_20 1.5142857142857
scalar BlockchainNetwork.iotNode[51] AverageBadServicesAt_20 1.5142857142857
scalar BlockchainNetwork.iotNode[52] AverageBadServicesAt_20 1.5142857142857
scalar BlockchainNetwork.iotNode[53] AverageBadServicesAt_20 1.5142857142857
scalar BlockchainNetwork.iotNode[54] AverageBadServicesAt_20 1.5142857142857
scalar BlockchainNetwork.iotNode[55] AverageBadServicesAt_20 1.5142857142857
scalar BlockchainNetwork.iotNode[56] AverageBadServicesAt_20 1.5142857142857
scalar BlockchainNetwork.iotNode[57] AverageBadServicesAt_20 1.5142857142857
scalar BlockchainNetwork.iotNode[58] AverageBadServicesAt_20 1.5142857142857
scalar BlockchainNetwork.iotNode[59] AverageBadServicesAt_20 1.5142857142857
scalar BlockchainNetwork.iotNode[60] AverageBadServicesAt_20 1.5142857142857
scalar BlockchainNetwork.iotNode[61] AverageBadServicesAt_20 1.5142857142857
scalar BlockchainNetwork.iotNode[62] AverageBadServicesAt_20 1.5142857142857
scalar BlockchainNetwork.iotNode[63] AverageBadServicesAt_20 1.5142857142857
scalar BlockchainNetwork.iotNode[64] AverageBadServicesAt_20 1.5142857142857
scalar BlockchainNetwork.iotNode[65] AverageBadServicesAt_20 1.5142857142857
scalar BlockchainNetwork.iotNode[66] AverageBadServicesAt_20 1.5142857142857
scalar BlockchainNetwork.iotNode[67] AverageBadServicesAt_20 1.5142857142857
scalar BlockchainNetwork.iotNode[68] AverageBadServicesAt_20 1.5142857142857
scalar BlockchainNetwork.iotNode[69] AverageBadServicesAt_20 1.5142857142857
scalar BlockchainNetwork.iotNode[70] AverageBadServicesAt_20 1.5142857142857
scalar BlockchainNetwork.iotNode[71] AverageBadServicesAt_20 1.5142857142857
scalar BlockchainNetwork.iotNode[72] AverageBadServicesAt_20 1.5142857142857
scalar BlockchainNetwork.iotNode[73] AverageBadServicesAt_20 1.5142857142857
scalar BlockchainNetwork.iotNode[74] AverageBadServicesAt_20 1.5142857142857
scalar BlockchainNetwork.iotNode[75] AverageBadServicesAt_20 1.5142857142857
scalar BlockchainNetwork.iotNode[76] AverageBadServicesAt_20 1.5142857142857
scalar BlockchainNetwork.iotNode[77] AverageBadServicesAt_20 1.5142857142857
scalar BlockchainNetwork.iotNode[78] AverageBadServicesAt_20 1.5142857142857
scalar BlockchainNetwork.iotNode[79] AverageBadServicesAt_20 1.5142857142857
scalar BlockchainNetwork.iotNode[80] AverageBadServicesAt_20 1.5142857142857
scalar BlockchainNetwork.iotNode[81] AverageBadServicesAt_20 1.5142857142857
scalar BlockchainNetwork.iotNode[82] AverageBadServicesAt_20 1.5142857142857
scalar BlockchainNetwork.iotNode[83] AverageBadServicesAt_20 1.5142857142857
scalar BlockchainNetwork.iotNode[84] AverageBadServicesAt_20 1.5142857142857
scalar BlockchainNetwork.iotNode[85] AverageBadServicesAt_20 1.5142857142857
scalar BlockchainNetwork.iotNode[86] AverageBadServicesAt_20 1.5142857142857
scalar BlockchainNetwork.iotNode[87] AverageBadServicesAt_20 1.5142857142857
scalar BlockchainNetwork.iotNode[88] AverageBadServicesAt_20 1.5142857142857
scalar BlockchainNetwork.iotNode[89] AverageBadServicesAt_20 1.5142857142857
scalar BlockchainNetwork.iotNode[90] AverageBadServicesAt_20 1.5142857142857
scalar BlockchainNetwork.iotNode[91] AverageBadServicesAt_20 1.5142857142857
scalar BlockchainNetwork.iotNode[92] AverageBadServicesAt_20 1.5142857142857
scalar BlockchainNetwork.iotNode[93] AverageBadServicesAt_20 1.5142857142857
scalar BlockchainNetwork.iotNode[94] AverageBadServicesAt_20 1.5142857142857
scalar BlockchainNetwork.iotNode[95] AverageBadServicesAt_20 1.5142857142857
scalar BlockchainNetwork.iotNode[96] AverageBadServicesAt_20 1.5142857142857
scalar BlockchainNetwork.iotNode[97] AverageBadServicesAt_20 1.5142857142857
scalar BlockchainNetwork.iotNode[98] AverageBadServicesAt_20 1.5142857142857
scalar BlockchainNetwork.iotNode[99] AverageBadServicesAt_20 1.5142857142857
scalar BlockchainNetwork.iotNode[0] AverageBadServicesAt_30 2.0571428571429
scalar BlockchainNetwork.iotNode[1] AverageBadServicesAt_30 2.0571428571429
scalar BlockchainNetwork.iotNode[2] AverageBadServicesAt_30 2.0571428571429
scalar BlockchainNetwork.iotNode[3] AverageBadServicesAt_30 2.0571428571429
scalar BlockchainNetwork.iotNode[4] AverageBadServicesAt_30 2.0571428571429
scalar BlockchainNetwork.iotNode[5] AverageBadServicesAt_30 2.0571428571429
scalar BlockchainNetwork.iotNode[6] AverageBadServicesAt_30 2.0571428571429
scalar BlockchainNetwork.iotNode[7] AverageBadServicesAt_30 2.0571428571429
scalar BlockchainNetwork.iotNode[8] AverageBadServicesAt_30 2.0571428571429
scalar BlockchainNetwork.iotNode[9] AverageBadServicesAt_30 2.0571428571429
scalar BlockchainNetwork.iotNode[10] AverageBadServicesAt_30 2.0571428571429
scalar BlockchainNetwork.iotNode[11] AverageBadServicesAt_30 2.0571428571429
scalar BlockchainNetwork.iotNode[12] AverageBadServicesAt_30 2.0571428571429
scalar BlockchainNetwork.iotNode[13] AverageBadServicesAt_30 2.0571428571429
scalar BlockchainNetwork.iotNode[14] AverageBadServicesAt_30 2.0571428571429
scalar BlockchainNetwork.iotNode[15] AverageBadServicesAt_30 2.0571428571429
scalar BlockchainNetwork.iotNode[16] AverageBadServicesAt_30 2.0571428571429
scalar BlockchainNetwork.iotNode[17] AverageBadServicesAt_30 2.0571428571429
scalar BlockchainNetwork.iotNode[18] AverageBadServicesAt_30 2.0571428571429
scalar BlockchainNetwork.iotNode[19] AverageBadServicesAt_30 2.0571428571429
scalar BlockchainNetwork.iotNode[20] AverageBadServicesAt_30 2.0571428571429
scalar BlockchainNetwork.iotNode[21] AverageBadServicesAt_30 2.0571428571429
scalar BlockchainNetwork.iotNode[22] AverageBadServicesAt_30 2.0571428571429
scalar BlockchainNetwork.iotNode[23] AverageBadServicesAt_30 2.0571428571429
scalar BlockchainNetwork.iotNode[24] AverageBadServicesAt_30 2.0571428571429
scalar BlockchainNetwork.iotNode[25] AverageBadServicesAt_30 2.0571428571429
scalar BlockchainNetwork.iotNode[26] AverageBadServicesAt_30 2.0571428571429
scalar BlockchainNetwork.iotNode[27] AverageBadServicesAt_30 2.0571428571429
scalar BlockchainNetwork.iotNode[28] AverageBadServicesAt_30 2.0571428571429
scalar BlockchainNetwork.iotNode[29] AverageBadServicesAt_30 2.0571428571429
scalar BlockchainNetwork.iotNode[30] AverageBadServicesAt_30 2.0571428571429
scalar BlockchainNetwork.iotNode[31] AverageBadServicesAt_30 2.0571428571429
scalar BlockchainNetwork.iotNode[32] AverageBadServicesAt_30 2.0571428571429
scalar BlockchainNetwork.iotNode[33] AverageBadServicesAt_30 2.0571428571429
scalar BlockchainNetwork.iotNode[34] AverageBadServicesAt_30 2.0571428571429
scalar BlockchainNetwork.iotNode[35] AverageBadServicesAt_30 2.0571428571429
scalar BlockchainNetwork.iotNode[36] AverageBadServicesAt_30 2.0571428571429
scalar BlockchainNetwork.iotNode[37] AverageBadServicesAt_30 2.0571428571429
scalar BlockchainNetwork.iotNode[38] AverageBadServicesAt_30 2.0571428571429
scalar BlockchainNetwork.iotNode[39] AverageBadServicesAt_30 2.0571428571429
scalar BlockchainNetwork.iotNode[40] AverageBadServicesAt_30 2.0571428571429
scalar BlockchainNetwork.iotNode[41] AverageBadServicesAt_30 2.0571428571429
scalar BlockchainNetwork.iotNode[42] AverageBadServicesAt_30 2.0571428571429
scalar BlockchainNetwork.iotNode[43] AverageBadServicesAt_30 2.0571428571429
scalar BlockchainNetwork.iotNode[44] AverageBadServicesAt_30 2.0571428571429
scalar BlockchainNetwork.iotNode[45] AverageBadServicesAt_30 2.0571428571429
scalar BlockchainNetwork.iotNode[46] AverageBadServicesAt_30 2.0571428571429
scalar BlockchainNetwork.iotNode[47] AverageBadServicesAt_30 2.0571428571429
scalar BlockchainNetwork.iotNode[48] AverageBadServicesAt_30 2.0571428571429
scalar BlockchainNetwork.iotNode[49] AverageBadServicesAt_30 2.0571428571429
scalar BlockchainNetwork.iotNode[50] AverageBadServicesAt_30 2.0571428571429
scalar BlockchainNetwork.iotNode[51] AverageBadServicesAt_30 2.0571428571429
scalar BlockchainNetwork.iotNode[52] AverageBadServicesAt_30 2.0571428571429
scalar BlockchainNetwork.iotNode[53] AverageBadServicesAt_30 2.0571428571429
scalar BlockchainNetwork.iotNode[54] AverageBadServicesAt_30 2.0571428571429
scalar BlockchainNetwork.iotNode[55] AverageBadServicesAt_30 2.0571428571429
scalar BlockchainNetwork.iotNode[56] AverageBadServicesAt_30 2.0571428571429
scalar BlockchainNetwork.iotNode[57] AverageBadServicesAt_30 2.0571428571429
scalar BlockchainNetwork.iotNode[58] AverageBadServicesAt_30 2.0571428571429
scalar BlockchainNetwork.iotNode[59] AverageBadServicesAt_30 2.0571428571429
scalar BlockchainNetwork.iotNode[60] AverageBadServicesAt_30 2.0571428571429
scalar BlockchainNetwork.iotNode[61] AverageBadServicesAt_30 2.0571428571429
scalar BlockchainNetwork.iotNode[62] AverageBadServicesAt_30 2.0571428571429
scalar BlockchainNetwork.iotNode[63] AverageBadServicesAt_30 2.0571428571429
scalar BlockchainNetwork.iotNode[64] AverageBadServicesAt_30 2.0571428571429
scalar BlockchainNetwork.iotNode[65] AverageBadServicesAt_30 2.0571428571429
scalar BlockchainNetwork.iotNode[66] AverageBadServicesAt_30 2.0571428571429
scalar BlockchainNetwork.iotNode[67] AverageBadServicesAt_30 2.0571428571429
scalar BlockchainNetwork.iotNode[68] AverageBadServicesAt_30 2.0571428571429
scalar BlockchainNetwork.iotNode[69] AverageBadServicesAt_30 2.0571428571429
scalar BlockchainNetwork.iotNode[70] AverageBadServicesAt_30 2.0571428571429
scalar BlockchainNetwork.iotNode[71] AverageBadServicesAt_30 2.0571428571429
scalar BlockchainNetwork.iotNode[72] AverageBadServicesAt_30 2.0571428571429
scalar BlockchainNetwork.iotNode[73] AverageBadServicesAt_30 2.0571428571429
scalar BlockchainNetwork.iotNode[74] AverageBadServicesAt_30 2.0571428571429
scalar BlockchainNetwork.iotNode[75] AverageBadServicesAt_30 2.0571428571429
scalar BlockchainNetwork.iotNode[76] AverageBadServicesAt_30 2.0571428571429
scalar BlockchainNetwork.iotNode[77] AverageBadServicesAt_30 2.0571428571429
scalar BlockchainNetwork.iotNode[78] AverageBadServicesAt_30 2.0571428571429
scalar BlockchainNetwork.iotNode[79] AverageBadServicesAt_30 2.0571428571429
scalar BlockchainNetwork.iotNode[80] AverageBadServicesAt_30 2.0571428571429
scalar BlockchainNetwork.iotNode[81] AverageBadServicesAt_30 2.0571428571429
scalar BlockchainNetwork.iotNode[82] AverageBadServicesAt_30 2.0571428571429
scalar BlockchainNetwork.iotNode[83] AverageBadServicesAt_30 2.0571428571429
scalar BlockchainNetwork.iotNode[84] AverageBadServicesAt_30 2.0571428571429
scalar BlockchainNetwork.iotNode[85] AverageBadServicesAt_30 2.0571428571429
scalar BlockchainNetwork.iotNode[86] AverageBadServicesAt_30 2.0571428571429
scalar BlockchainNetwork.iotNode[87] AverageBadServicesAt_30 2.0571428571429
scalar BlockchainNetwork.iotNode[88] AverageBadServicesAt_30 2.0571428571429
scalar BlockchainNetwork.iotNode[89] AverageBadServicesAt_30 2.0571428571429
scalar BlockchainNetwork.iotNode[90] AverageBadServicesAt_30 2.0571428571429
scalar BlockchainNetwork.iotNode[91] AverageBadServicesAt_30 2.0571428571429
scalar BlockchainNetwork.iotNode[92] AverageBadServicesAt_30 2.0571428571429
scalar BlockchainNetwork.iotNode[93] AverageBadServicesAt_30 2.0571428571429
scalar BlockchainNetwork.iotNode[94] AverageBadServicesAt_30 2.0571428571429
scalar BlockchainNetwork.iotNode[95] AverageBadServicesAt_30 2.0571428571429
scalar BlockchainNetwork.iotNode[96] AverageBadServicesAt_30 2.0571428571429
scalar BlockchainNetwork.iotNode[97] AverageBadServicesAt_30 2.0571428571429
scalar BlockchainNetwork.iotNode[98] AverageBadServicesAt_30 2.0571428571429
scalar BlockchainNetwork.iotNode[99] AverageBadServicesAt_30 2.0571428571429
scalar BlockchainNetwork.iotNode[0] AverageBadServicesAt_40 2.4285714285714
scalar BlockchainNetwork.iotNode[1] AverageBadServicesAt_40 2.4285714285714
scalar BlockchainNetwork.iotNode[2] AverageBadServicesAt_40 2.4285714285714
scalar BlockchainNetwork.iotNode[3] AverageBadServicesAt_40 2.4285714285714
scalar BlockchainNetwork.iotNode[4] AverageBadServicesAt_40 2.4285714285714
scalar BlockchainNetwork.iotNode[5] AverageBadServicesAt_40 2.4285714285714
scalar BlockchainNetwork.iotNode[6] AverageBadServicesAt_40 2.4285714285714
scalar BlockchainNetwork.iotNode[7] AverageBadServicesAt_40 2.4285714285714
scalar BlockchainNetwork.iotNode[8] AverageBadServicesAt_40 2.4285714285714
scalar BlockchainNetwork.iotNode[9] AverageBadServicesAt_40 2.4285714285714
scalar BlockchainNetwork.iotNode[10] AverageBadServicesAt_40 2.4285714285714
scalar BlockchainNetwork.iotNode[11] AverageBadServicesAt_40 2.4285714285714
scalar BlockchainNetwork.iotNode[12] AverageBadServicesAt_40 2.4285714285714
scalar BlockchainNetwork.iotNode[13] AverageBadServicesAt_40 2.4285714285714
scalar BlockchainNetwork.iotNode[14] AverageBadServicesAt_40 2.4285714285714
scalar BlockchainNetwork.iotNode[15] AverageBadServicesAt_40 2.4285714285714
scalar BlockchainNetwork.iotNode[16] AverageBadServicesAt_40 2.4285714285714
scalar BlockchainNetwork.iotNode[17] AverageBadServicesAt_40 2.4285714285714
scalar BlockchainNetwork.iotNode[18] AverageBadServicesAt_40 2.4285714285714
scalar BlockchainNetwork.iotNode[19] AverageBadServicesAt_40 2.4285714285714
scalar BlockchainNetwork.iotNode[20] AverageBadServicesAt_40 2.4285714285714
scalar BlockchainNetwork.iotNode[21] AverageBadServicesAt_40 2.4285714285714
scalar BlockchainNetwork.iotNode[22] AverageBadServicesAt_40 2.4285714285714
scalar BlockchainNetwork.iotNode[23] AverageBadServicesAt_40 2.4285714285714
scalar BlockchainNetwork.iotNode[24] AverageBadServicesAt_40 2.4285714285714
scalar BlockchainNetwork.iotNode[25] AverageBadServicesAt_40 2.4285714285714
scalar BlockchainNetwork.iotNode[26] AverageBadServicesAt_40 2.4285714285714
scalar BlockchainNetwork.iotNode[27] AverageBadServicesAt_40 2.4285714285714
scalar BlockchainNetwork.iotNode[28] AverageBadServicesAt_40 2.4285714285714
scalar BlockchainNetwork.iotNode[29] AverageBadServicesAt_40 2.4285714285714
scalar BlockchainNetwork.iotNode[30] AverageBadServicesAt_40 2.4285714285714
scalar BlockchainNetwork.iotNode[31] AverageBadServicesAt_40 2.4285714285714
scalar BlockchainNetwork.iotNode[32] AverageBadServicesAt_40 2.4285714285714
scalar BlockchainNetwork.iotNode[33] AverageBadServicesAt_40 2.4285714285714
scalar BlockchainNetwork.iotNode[34] AverageBadServicesAt_40 2.4285714285714
scalar BlockchainNetwork.iotNode[35] AverageBadServicesAt_40 2.4285714285714
scalar BlockchainNetwork.iotNode[36] AverageBadServicesAt_40 2.4285714285714
scalar BlockchainNetwork.iotNode[37] AverageBadServicesAt_40 2.4285714285714
scalar BlockchainNetwork.iotNode[38] AverageBadServicesAt_40 2.4285714285714
scalar BlockchainNetwork.iotNode[39] AverageBadServicesAt_40 2.4285714285714
scalar BlockchainNetwork.iotNode[40] AverageBadServicesAt_40 2.4285714285714
scalar BlockchainNetwork.iotNode[41] AverageBadServicesAt_40 2.4285714285714
scalar BlockchainNetwork.iotNode[42] AverageBadServicesAt_40 2.4285714285714
scalar BlockchainNetwork.iotNode[43] AverageBadServicesAt_40 2.4285714285714
scalar BlockchainNetwork.iotNode[44] AverageBadServicesAt_40 2.4285714285714
scalar BlockchainNetwork.iotNode[45] AverageBadServicesAt_40 2.4285714285714
scalar BlockchainNetwork.iotNode[46] AverageBadServicesAt_40 2.4285714285714
scalar BlockchainNetwork.iotNode[47] AverageBadServicesAt_40 2.4285714285714
scalar BlockchainNetwork.iotNode[48] AverageBadServicesAt_40 2.4285714285714
scalar BlockchainNetwork.iotNode[49] AverageBadServicesAt_40 2.4285714285714
scalar BlockchainNetwork.iotNode[50] AverageBadServicesAt_40 2.4285714285714
scalar BlockchainNetwork.iotNode[51] AverageBadServicesAt_40 2.4285714285714
scalar BlockchainNetwork.iotNode[52] AverageBadServicesAt_40 2.4285714285714
scalar BlockchainNetwork.iotNode[53] AverageBadServicesAt_40 2.4285714285714
scalar BlockchainNetwork.iotNode[54] AverageBadServicesAt_40 2.4285714285714
scalar BlockchainNetwork.iotNode[55] AverageBadServicesAt_40 2.4285714285714
scalar BlockchainNetwork.iotNode[56] AverageBadServicesAt_40 2.4285714285714
scalar BlockchainNetwork.iotNode[57] AverageBadServicesAt_40 2.4285714285714
scalar BlockchainNetwork.iotNode[58] AverageBadServicesAt_40 2.4285714285714
scalar BlockchainNetwork.iotNode[59] AverageBadServicesAt_40 2.4285714285714
scalar BlockchainNetwork.iotNode[60] AverageBadServicesAt_40 2.4285714285714
scalar BlockchainNetwork.iotNode[61] AverageBadServicesAt_40 2.4285714285714
scalar BlockchainNetwork.iotNode[62] AverageBadServicesAt_40 2.4285714285714
scalar BlockchainNetwork.iotNode[63] AverageBadServicesAt_40 2.4285714285714
scalar BlockchainNetwork.iotNode[64] AverageBadServicesAt_40 2.4285714285714
scalar BlockchainNetwork.iotNode[65] AverageBadServicesAt_40 2.4285714285714
scalar BlockchainNetwork.iotNode[66] AverageBadServicesAt_40 2.4285714285714
scalar BlockchainNetwork.iotNode[67] AverageBadServicesAt_40 2.4285714285714
scalar BlockchainNetwork.iotNode[68] AverageBadServicesAt_40 2.4285714285714
scalar BlockchainNetwork.iotNode[69] AverageBadServicesAt_40 2.4285714285714
scalar BlockchainNetwork.iotNode[70] AverageBadServicesAt_40 2.4285714285714
scalar BlockchainNetwork.iotNode[71] AverageBadServicesAt_40 2.4285714285714
scalar BlockchainNetwork.iotNode[72] AverageBadServicesAt_40 2.4285714285714
scalar BlockchainNetwork.iotNode[73] AverageBadServicesAt_40 2.4285714285714
scalar BlockchainNetwork.iotNode[74] AverageBadServicesAt_40 2.4285714285714
scalar BlockchainNetwork.iotNode[75] AverageBadServicesAt_40 2.4285714285714
scalar BlockchainNetwork.iotNode[76] AverageBadServicesAt_40 2.4285714285714
scalar BlockchainNetwork.iotNode[77] AverageBadServicesAt_40 2.4285714285714
scalar BlockchainNetwork.iotNode[78] AverageBadServicesAt_40 2.4285714285714
scalar BlockchainNetwork.iotNode[79] AverageBadServicesAt_40 2.4285714285714
scalar BlockchainNetwork.iotNode[80] AverageBadServicesAt_40 2.4285714285714
scalar BlockchainNetwork.iotNode[81] AverageBadServicesAt_40 2.4285714285714
scalar BlockchainNetwork.iotNode[82] AverageBadServicesAt_40 2.4285714285714
scalar BlockchainNetwork.iotNode[83] AverageBadServicesAt_40 2.4285714285714
scalar BlockchainNetwork.iotNode[84] AverageBadServicesAt_40 2.4285714285714
scalar BlockchainNetwork.iotNode[85] AverageBadServicesAt_40 2.4285714285714
scalar BlockchainNetwork.iotNode[86] AverageBadServicesAt_40 2.4285714285714
scalar BlockchainNetwork.iotNode[87] AverageBadServicesAt_40 2.4285714285714
scalar BlockchainNetwork.iotNode[88] AverageBadServicesAt_40 2.4285714285714
scalar BlockchainNetwork.iotNode[89] AverageBadServicesAt_40 2.4285714285714
scalar BlockchainNetwork.iotNode[90] AverageBadServicesAt_40 2.4285714285714
scalar BlockchainNetwork.iotNode[91] AverageBadServicesAt_40 2.4285714285714
scalar BlockchainNetwork.iotNode[92] AverageBadServicesAt_40 2.4285714285714
scalar BlockchainNetwork.iotNode[93] AverageBadServicesAt_40 2.4285714285714
scalar BlockchainNetwork.iotNode[94] AverageBadServicesAt_40 2.4285714285714
scalar BlockchainNetwork.iotNode[95] AverageBadServicesAt_40 2.4285714285714
scalar BlockchainNetwork.iotNode[96] AverageBadServicesAt_40 2.4285714285714
scalar BlockchainNetwork.iotNode[97] AverageBadServicesAt_40 2.4285714285714
scalar BlockchainNetwork.iotNode[98] AverageBadServicesAt_40 2.4285714285714
scalar BlockchainNetwork.iotNode[99] AverageBadServicesAt_40 2.4285714285714
scalar BlockchainNetwork.iotNode[0] AverageBadServicesAt_50 2.7571428571429
scalar BlockchainNetwork.iotNode[1] AverageBadServicesAt_50 2.7571428571429
scalar BlockchainNetwork.iotNode[2] AverageBadServicesAt_50 2.7571428571429
scalar BlockchainNetwork.iotNode[3] AverageBadServicesAt_50 2.7571428571429
scalar BlockchainNetwork.iotNode[4] AverageBadServicesAt_50 2.7571428571429
scalar BlockchainNetwork.iotNode[5] AverageBadServicesAt_50 2.7571428571429
scalar BlockchainNetwork.iotNode[6] AverageBadServicesAt_50 2.7571428571429
scalar BlockchainNetwork.iotNode[7] AverageBadServicesAt_50 2.7571428571429
scalar BlockchainNetwork.iotNode[8] AverageBadServicesAt_50 2.7571428571429
scalar BlockchainNetwork.iotNode[9] AverageBadServicesAt_50 2.7571428571429
scalar BlockchainNetwork.iotNode[10] AverageBadServicesAt_50 2.7571428571429
scalar BlockchainNetwork.iotNode[11] AverageBadServicesAt_50 2.7571428571429
scalar BlockchainNetwork.iotNode[12] AverageBadServicesAt_50 2.7571428571429
scalar BlockchainNetwork.iotNode[13] AverageBadServicesAt_50 2.7571428571429
scalar BlockchainNetwork.iotNode[14] AverageBadServicesAt_50 2.7571428571429
scalar BlockchainNetwork.iotNode[15] AverageBadServicesAt_50 2.7571428571429
scalar BlockchainNetwork.iotNode[16] AverageBadServicesAt_50 2.7571428571429
scalar BlockchainNetwork.iotNode[17] AverageBadServicesAt_50 2.7571428571429
scalar BlockchainNetwork.iotNode[18] AverageBadServicesAt_50 2.7571428571429
scalar BlockchainNetwork.iotNode[19] AverageBadServicesAt_50 2.7571428571429
scalar BlockchainNetwork.iotNode[20] AverageBadServicesAt_50 2.7571428571429
scalar BlockchainNetwork.iotNode[21] AverageBadServicesAt_50 2.7571428571429
scalar BlockchainNetwork.iotNode[22] AverageBadServicesAt_50 2.7571428571429
scalar BlockchainNetwork.iotNode[23] AverageBadServicesAt_50 2.7571428571429
scalar BlockchainNetwork.iotNode[24] AverageBadServicesAt_50 2.7571428571429
scalar BlockchainNetwork.iotNode[25] AverageBadServicesAt_50 2.7571428571429
scalar BlockchainNetwork.iotNode[26] AverageBadServicesAt_50 2.7571428571429
scalar BlockchainNetwork.iotNode[27] AverageBadServicesAt_50 2.7571428571429
scalar BlockchainNetwork.iotNode[28] AverageBadServicesAt_50 2.7571428571429
scalar BlockchainNetwork.iotNode[29] AverageBadServicesAt_50 2.7571428571429
scalar BlockchainNetwork.iotNode[30] AverageBadServicesAt_50 2.7571428571429
scalar BlockchainNetwork.iotNode[31] AverageBadServicesAt_50 2.7571428571429
scalar BlockchainNetwork.iotNode[32] AverageBadServicesAt_50 2.7571428571429
scalar BlockchainNetwork.iotNode[33] AverageBadServicesAt_50 2.7571428571429
scalar BlockchainNetwork.iotNode[34] AverageBadServicesAt_50 2.7571428571429
scalar BlockchainNetwork.iotNode[35] AverageBadServicesAt_50 2.7571428571429
scalar BlockchainNetwork.iotNode[36] AverageBadServicesAt_50 2.7571428571429
scalar BlockchainNetwork.iotNode[37] AverageBadServicesAt_50 2.7571428571429
scalar BlockchainNetwork.iotNode[38] AverageBadServicesAt_50 2.7571428571429
scalar BlockchainNetwork.iotNode[39] AverageBadServicesAt_50 2.7571428571429
scalar BlockchainNetwork.iotNode[40] AverageBadServicesAt_50 2.7571428571429
scalar BlockchainNetwork.iotNode[41] AverageBadServicesAt_50 2.7571428571429
scalar BlockchainNetwork.iotNode[42] AverageBadServicesAt_50 2.7571428571429
scalar BlockchainNetwork.iotNode[43] AverageBadServicesAt_50 2.7571428571429
scalar BlockchainNetwork.iotNode[44] AverageBadServicesAt_50 2.7571428571429
scalar BlockchainNetwork.iotNode[45] AverageBadServicesAt_50 2.7571428571429
scalar BlockchainNetwork.iotNode[46] AverageBadServicesAt_50 2.7571428571429
scalar BlockchainNetwork.iotNode[47] AverageBadServicesAt_50 2.7571428571429
scalar BlockchainNetwork.iotNode[48] AverageBadServicesAt_50 2.7571428571429
scalar BlockchainNetwork.iotNode[49] AverageBadServicesAt_50 2.7571428571429
scalar BlockchainNetwork.iotNode[50] AverageBadServicesAt_50 2.7571428571429
scalar BlockchainNetwork.iotNode[51] AverageBadServicesAt_50 2.7571428571429
scalar BlockchainNetwork.iotNode[52] AverageBadServicesAt_50 2.7571428571429
scalar BlockchainNetwork.iotNode[53] AverageBadServicesAt_50 2.7571428571429
scalar BlockchainNetwork.iotNode[54] AverageBadServicesAt_50 2.7571428571429
scalar BlockchainNetwork.iotNode[55] AverageBadServicesAt_50 2.7571428571429
scalar BlockchainNetwork.iotNode[56] AverageBadServicesAt_50 2.7571428571429
scalar BlockchainNetwork.iotNode[57] AverageBadServicesAt_50 2.7571428571429
scalar BlockchainNetwork.iotNode[58] AverageBadServicesAt_50 2.7571428571429
scalar BlockchainNetwork.iotNode[59] AverageBadServicesAt_50 2.7571428571429
scalar BlockchainNetwork.iotNode[60] AverageBadServicesAt_50 2.7571428571429
scalar BlockchainNetwork.iotNode[61] AverageBadServicesAt_50 2.7571428571429
scalar BlockchainNetwork.iotNode[62] AverageBadServicesAt_50 2.7571428571429
scalar BlockchainNetwork.iotNode[63] AverageBadServicesAt_50 2.7571428571429
scalar BlockchainNetwork.iotNode[64] AverageBadServicesAt_50 2.7571428571429
scalar BlockchainNetwork.iotNode[65] AverageBadServicesAt_50 2.7571428571429
scalar BlockchainNetwork.iotNode[66] AverageBadServicesAt_50 2.7571428571429
scalar BlockchainNetwork.iotNode[67] AverageBadServicesAt_50 2.7571428571429
scalar BlockchainNetwork.iotNode[68] AverageBadServicesAt_50 2.7571428571429
scalar BlockchainNetwork.iotNode[69] AverageBadServicesAt_50 2.7571428571429
scalar BlockchainNetwork.iotNode[70] AverageBadServicesAt_50 2.7571428571429
scalar BlockchainNetwork.iotNode[71] AverageBadServicesAt_50 2.7571428571429
scalar BlockchainNetwork.iotNode[72] AverageBadServicesAt_50 2.7571428571429
scalar BlockchainNetwork.iotNode[73] AverageBadServicesAt_50 2.7571428571429
scalar BlockchainNetwork.iotNode[74] AverageBadServicesAt_50 2.7571428571429
scalar BlockchainNetwork.iotNode[75] AverageBadServicesAt_50 2.7571428571429
scalar BlockchainNetwork.iotNode[76] AverageBadServicesAt_50 2.7571428571429
scalar BlockchainNetwork.iotNode[77] AverageBadServicesAt_50 2.7571428571429
scalar BlockchainNetwork.iotNode[78] AverageBadServicesAt_50 2.7571428571429
scalar BlockchainNetwork.iotNode[79] AverageBadServicesAt_50 2.7571428571429
scalar BlockchainNetwork.iotNode[80] AverageBadServicesAt_50 2.7571428571429
scalar BlockchainNetwork.iotNode[81] AverageBadServicesAt_50 2.7571428571429
scalar BlockchainNetwork.iotNode[82] AverageBadServicesAt_50 2.7571428571429
scalar BlockchainNetwork.iotNode[83] AverageBadServicesAt_50 2.7571428571429
scalar BlockchainNetwork.iotNode[84] AverageBadServicesAt_50 2.7571428571429
scalar BlockchainNetwork.iotNode[85] AverageBadServicesAt_50 2.7571428571429
scalar BlockchainNetwork.iotNode[86] AverageBadServicesAt_50 2.7571428571429
scalar BlockchainNetwork.iotNode[87] AverageBadServicesAt_50 2.7571428571429
scalar BlockchainNetwork.iotNode[88] AverageBadServicesAt_50 2.7571428571429
scalar BlockchainNetwork.iotNode[89] AverageBadServicesAt_50 2.7571428571429
scalar BlockchainNetwork.iotNode[90] AverageBadServicesAt_50 2.7571428571429
scalar BlockchainNetwork.iotNode[91] AverageBadServicesAt_50 2.7571428571429
scalar BlockchainNetwork.iotNode[92] AverageBadServicesAt_50 2.7571428571429
scalar BlockchainNetwork.iotNode[93] AverageBadServicesAt_50 2.7571428571429
scalar BlockchainNetwork.iotNode[94] AverageBadServicesAt_50 2.7571428571429
scalar BlockchainNetwork.iotNode[95] AverageBadServicesAt_50 2.7571428571429
scalar BlockchainNetwork.iotNode[96] AverageBadServicesAt_50 2.7571428571429
scalar BlockchainNetwork.iotNode[97] AverageBadServicesAt_50 2.7571428571429
scalar BlockchainNetwork.iotNode[98] AverageBadServicesAt_50 2.7571428571429
scalar BlockchainNetwork.iotNode[99] AverageBadServicesAt_50 2.7571428571429
scalar BlockchainNetwork.iotNode[0] AverageBadServicesAt_60 3.0714285714286
scalar BlockchainNetwork.iotNode[1] AverageBadServicesAt_60 3.0714285714286
scalar BlockchainNetwork.iotNode[2] AverageBadServicesAt_60 3.0714285714286
scalar BlockchainNetwork.iotNode[3] AverageBadServicesAt_60 3.0714285714286
scalar BlockchainNetwork.iotNode[4] AverageBadServicesAt_60 3.0714285714286
scalar BlockchainNetwork.iotNode[5] AverageBadServicesAt_60 3.0714285714286
scalar BlockchainNetwork.iotNode[6] AverageBadServicesAt_60 3.0714285714286
scalar BlockchainNetwork.iotNode[7] AverageBadServicesAt_60 3.0714285714286
scalar BlockchainNetwork.iotNode[8] AverageBadServicesAt_60 3.0714285714286
scalar BlockchainNetwork.iotNode[9] AverageBadServicesAt_60 3.0714285714286
scalar BlockchainNetwork.iotNode[10] AverageBadServicesAt_60 3.0714285714286
scalar BlockchainNetwork.iotNode[11] AverageBadServicesAt_60 3.0714285714286
scalar BlockchainNetwork.iotNode[12] AverageBadServicesAt_60 3.0714285714286
scalar BlockchainNetwork.iotNode[13] AverageBadServicesAt_60 3.0714285714286
scalar BlockchainNetwork.iotNode[14] AverageBadServicesAt_60 3.0714285714286
scalar BlockchainNetwork.iotNode[15] AverageBadServicesAt_60 3.0714285714286
scalar BlockchainNetwork.iotNode[16] AverageBadServicesAt_60 3.0714285714286
scalar BlockchainNetwork.iotNode[17] AverageBadServicesAt_60 3.0714285714286
scalar BlockchainNetwork.iotNode[18] AverageBadServicesAt_60 3.0714285714286
scalar BlockchainNetwork.iotNode[19] AverageBadServicesAt_60 3.0714285714286
scalar BlockchainNetwork.iotNode[20] AverageBadServicesAt_60 3.0714285714286
scalar BlockchainNetwork.iotNode[21] AverageBadServicesAt_60 3.0714285714286
scalar BlockchainNetwork.iotNode[22] AverageBadServicesAt_60 3.0714285714286
scalar BlockchainNetwork.iotNode[23] AverageBadServicesAt_60 3.0714285714286
scalar BlockchainNetwork.iotNode[24] AverageBadServicesAt_60 3.0714285714286
scalar BlockchainNetwork.iotNode[25] AverageBadServicesAt_60 3.0714285714286
scalar BlockchainNetwork.iotNode[26] AverageBadServicesAt_60 3.0714285714286
scalar BlockchainNetwork.iotNode[27] AverageBadServicesAt_60 3.0714285714286
scalar BlockchainNetwork.iotNode[28] AverageBadServicesAt_60 3.0714285714286
scalar BlockchainNetwork.iotNode[29] AverageBadServicesAt_60 3.0714285714286
scalar BlockchainNetwork.iotNode[30] AverageBadServicesAt_60 3.0714285714286
scalar BlockchainNetwork.iotNode[31] AverageBadServicesAt_60 3.0714285714286
scalar BlockchainNetwork.iotNode[32] AverageBadServicesAt_60 3.0714285714286
scalar BlockchainNetwork.iotNode[33] AverageBadServicesAt_60 3.0714285714286
scalar BlockchainNetwork.iotNode[34] AverageBadServicesAt_60 3.0714285714286
scalar BlockchainNetwork.iotNode[35] AverageBadServicesAt_60 3.0714285714286
scalar BlockchainNetwork.iotNode[36] AverageBadServicesAt_60 3.0714285714286
scalar BlockchainNetwork.iotNode[37] AverageBadServicesAt_60 3.0714285714286
scalar BlockchainNetwork.iotNode[38] AverageBadServicesAt_60 3.0714285714286
scalar BlockchainNetwork.iotNode[39] AverageBadServicesAt_60 3.0714285714286
scalar BlockchainNetwork.iotNode[40] AverageBadServicesAt_60 3.0714285714286
scalar BlockchainNetwork.iotNode[41] AverageBadServicesAt_60 3.0714285714286
scalar BlockchainNetwork.iotNode[42] AverageBadServicesAt_60 3.0714285714286
scalar BlockchainNetwork.iotNode[43] AverageBadServicesAt_60 3.0714285714286
scalar BlockchainNetwork.iotNode[44] AverageBadServicesAt_60 3.0714285714286
scalar BlockchainNetwork.iotNode[45] AverageBadServicesAt_60 3.0714285714286
scalar BlockchainNetwork.iotNode[46] AverageBadServicesAt_60 3.0714285714286
scalar BlockchainNetwork.iotNode[47] AverageBadServicesAt_60 3.0714285714286
scalar BlockchainNetwork.iotNode[48] AverageBadServicesAt_60 3.0714285714286
scalar BlockchainNetwork.iotNode[49] AverageBadServicesAt_60 3.0714285714286
scalar BlockchainNetwork.iotNode[50] AverageBadServicesAt_60 3.0714285714286
scalar BlockchainNetwork.iotNode[51] AverageBadServicesAt_60 3.0714285714286
scalar BlockchainNetwork.iotNode[52] AverageBadServicesAt_60 3.0714285714286
scalar BlockchainNetwork.iotNode[53] AverageBadServicesAt_60 3.0714285714286
scalar BlockchainNetwork.iotNode[54] AverageBadServicesAt_60 3.0714285714286
scalar BlockchainNetwork.iotNode[55] AverageBadServicesAt_60 3.0714285714286
scalar BlockchainNetwork.iotNode[56] AverageBadServicesAt_60 3.0714285714286
scalar BlockchainNetwork.iotNode[57] AverageBadServicesAt_60 3.0714285714286
scalar BlockchainNetwork.iotNode[58] AverageBadServicesAt_60 3.0714285714286
scalar BlockchainNetwork.iotNode[59] AverageBadServicesAt_60 3.0714285714286
scalar BlockchainNetwork.iotNode[60] AverageBadServicesAt_60 3.0714285714286
scalar BlockchainNetwork.iotNode[61] AverageBadServicesAt_60 3.0714285714286
scalar BlockchainNetwork.iotNode[62] AverageBadServicesAt_60 3.0714285714286
scalar BlockchainNetwork.iotNode[63] AverageBadServicesAt_60 3.0714285714286
scalar BlockchainNetwork.iotNode[64] AverageBadServicesAt_60 3.0714285714286
scalar BlockchainNetwork.iotNode[65] AverageBadServicesAt_60 3.0714285714286
scalar BlockchainNetwork.iotNode[66] AverageBadServicesAt_60 3.0714285714286
scalar BlockchainNetwork.iotNode[67] AverageBadServicesAt_60 3.0714285714286
scalar BlockchainNetwork.iotNode[68] AverageBadServicesAt_60 3.0714285714286
scalar BlockchainNetwork.iotNode[69] AverageBadServicesAt_60 3.0714285714286
scalar BlockchainNetwork.iotNode[70] AverageBadServicesAt_60 3.0714285714286
scalar BlockchainNetwork.iotNode[71] AverageBadServicesAt_60 3.0714285714286
scalar BlockchainNetwork.iotNode[72] AverageBadServicesAt_60 3.0714285714286
scalar BlockchainNetwork.iotNode[73] AverageBadServicesAt_60 3.0714285714286
scalar BlockchainNetwork.iotNode[74] AverageBadServicesAt_60 3.0714285714286
scalar BlockchainNetwork.iotNode[75] AverageBadServicesAt_60 3.0714285714286
scalar BlockchainNetwork.iotNode[76] AverageBadServicesAt_60 3.0714285714286
scalar BlockchainNetwork.iotNode[77] AverageBadServicesAt_60 3.0714285714286
scalar BlockchainNetwork.iotNode[78] AverageBadServicesAt_60 3.0714285714286
scalar BlockchainNetwork.iotNode[79] AverageBadServicesAt_60 3.0714285714286
scalar BlockchainNetwork.iotNode[80] AverageBadServicesAt_60 3.0714285714286
scalar BlockchainNetwork.iotNode[81] AverageBadServicesAt_60 3.0714285714286
scalar BlockchainNetwork.iotNode[82] AverageBadServicesAt_60 3.0714285714286
scalar BlockchainNetwork.iotNode[83] AverageBadServicesAt_60 3.0714285714286
scalar BlockchainNetwork.iotNode[84] AverageBadServicesAt_60 3.0714285714286
scalar BlockchainNetwork.iotNode[85] AverageBadServicesAt_60 3.0714285714286
scalar BlockchainNetwork.iotNode[86] AverageBadServicesAt_60 3.0714285714286
scalar BlockchainNetwork.iotNode[87] AverageBadServicesAt_60 3.0714285714286
scalar BlockchainNetwork.iotNode[88] AverageBadServicesAt_60 3.0714285714286
scalar BlockchainNetwork.iotNode[89] AverageBadServicesAt_60 3.0714285714286
scalar BlockchainNetwork.iotNode[90] AverageBadServicesAt_60 3.0714285714286
scalar BlockchainNetwork.iotNode[91] AverageBadServicesAt_60 3.0714285714286
scalar BlockchainNetwork.iotNode[92] AverageBadServicesAt_60 3.0714285714286
scalar BlockchainNetwork.iotNode[93] AverageBadServicesAt_60 3.0714285714286
scalar BlockchainNetwork.iotNode[94] AverageBadServicesAt_60 3.0714285714286
scalar BlockchainNetwork.iotNode[95] AverageBadServicesAt_60 3.0714285714286
scalar BlockchainNetwork.iotNode[96] AverageBadServicesAt_60 3.0714285714286
scalar BlockchainNetwork.iotNode[97] AverageBadServicesAt_60 3.0714285714286
scalar BlockchainNetwork.iotNode[98] AverageBadServicesAt_60 3.0714285714286
scalar BlockchainNetwork.iotNode[99] AverageBadServicesAt_60 3.0714285714286
scalar BlockchainNetwork.iotNode[0] AverageBadServicesAt_70 3.2714285714286
scalar BlockchainNetwork.iotNode[1] AverageBadServicesAt_70 3.2714285714286
scalar BlockchainNetwork.iotNode[2] AverageBadServicesAt_70 3.2714285714286
scalar BlockchainNetwork.iotNode[3] AverageBadServicesAt_70 3.2714285714286
scalar BlockchainNetwork.iotNode[4] AverageBadServicesAt_70 3.2714285714286
scalar BlockchainNetwork.iotNode[5] AverageBadServicesAt_70 3.2714285714286
scalar BlockchainNetwork.iotNode[6] AverageBadServicesAt_70 3.2714285714286
scalar BlockchainNetwork.iotNode[7] AverageBadServicesAt_70 3.2714285714286
scalar BlockchainNetwork.iotNode[8] AverageBadServicesAt_70 3.2714285714286
scalar BlockchainNetwork.iotNode[9] AverageBadServicesAt_70 3.2714285714286
scalar BlockchainNetwork.iotNode[10] AverageBadServicesAt_70 3.2714285714286
scalar BlockchainNetwork.iotNode[11] AverageBadServicesAt_70 3.2714285714286
scalar BlockchainNetwork.iotNode[12] AverageBadServicesAt_70 3.2714285714286
scalar BlockchainNetwork.iotNode[13] AverageBadServicesAt_70 3.2714285714286
scalar BlockchainNetwork.iotNode[14] AverageBadServicesAt_70 3.2714285714286
scalar BlockchainNetwork.iotNode[15] AverageBadServicesAt_70 3.2714285714286
scalar BlockchainNetwork.iotNode[16] AverageBadServicesAt_70 3.2714285714286
scalar BlockchainNetwork.iotNode[17] AverageBadServicesAt_70 3.2714285714286
scalar BlockchainNetwork.iotNode[18] AverageBadServicesAt_70 3.2714285714286
scalar BlockchainNetwork.iotNode[19] AverageBadServicesAt_70 3.2714285714286
scalar BlockchainNetwork.iotNode[20] AverageBadServicesAt_70 3.2714285714286
scalar BlockchainNetwork.iotNode[21] AverageBadServicesAt_70 3.2714285714286
scalar BlockchainNetwork.iotNode[22] AverageBadServicesAt_70 3.2714285714286
scalar BlockchainNetwork.iotNode[23] AverageBadServicesAt_70 3.2714285714286
scalar BlockchainNetwork.iotNode[24] AverageBadServicesAt_70 3.2714285714286
scalar BlockchainNetwork.iotNode[25] AverageBadServicesAt_70 3.2714285714286
scalar BlockchainNetwork.iotNode[26] AverageBadServicesAt_70 3.2714285714286
scalar BlockchainNetwork.iotNode[27] AverageBadServicesAt_70 3.2714285714286
scalar BlockchainNetwork.iotNode[28] AverageBadServicesAt_70 3.2714285714286
scalar BlockchainNetwork.iotNode[29] AverageBadServicesAt_70 3.2714285714286
scalar BlockchainNetwork.iotNode[30] AverageBadServicesAt_70 3.2714285714286
scalar BlockchainNetwork.iotNode[31] AverageBadServicesAt_70 3.2714285714286
scalar BlockchainNetwork.iotNode[32] AverageBadServicesAt_70 3.2714285714286
scalar BlockchainNetwork.iotNode[33] AverageBadServicesAt_70 3.2714285714286
scalar BlockchainNetwork.iotNode[34] AverageBadServicesAt_70 3.2714285714286
scalar BlockchainNetwork.iotNode[35] AverageBadServicesAt_70 3.2714285714286
scalar BlockchainNetwork.iotNode[36] AverageBadServicesAt_70 3.2714285714286
scalar BlockchainNetwork.iotNode[37] AverageBadServicesAt_70 3.2714285714286
scalar BlockchainNetwork.iotNode[38] AverageBadServicesAt_70 3.2714285714286
scalar BlockchainNetwork.iotNode[39] AverageBadServicesAt_70 3.2714285714286
scalar BlockchainNetwork.iotNode[40] AverageBadServicesAt_70 3.2714285714286
scalar BlockchainNetwork.iotNode[41] AverageBadServicesAt_70 3.2714285714286
scalar BlockchainNetwork.iotNode[42] AverageBadServicesAt_70 3.2714285714286
scalar BlockchainNetwork.iotNode[43] AverageBadServicesAt_70 3.2714285714286
scalar BlockchainNetwork.iotNode[44] AverageBadServicesAt_70 3.2714285714286
scalar BlockchainNetwork.iotNode[45] AverageBadServicesAt_70 3.2714285714286
scalar BlockchainNetwork.iotNode[46] AverageBadServicesAt_70 3.2714285714286
scalar BlockchainNetwork.iotNode[47] AverageBadServicesAt_70 3.2714285714286
scalar BlockchainNetwork.iotNode[48] AverageBadServicesAt_70 3.2714285714286
scalar BlockchainNetwork.iotNode[49] AverageBadServicesAt_70 3.2714285714286
scalar BlockchainNetwork.iotNode[50] AverageBadServicesAt_70 3.2714285714286
scalar BlockchainNetwork.iotNode[51] AverageBadServicesAt_70 3.2714285714286
scalar BlockchainNetwork.iotNode[52] AverageBadServicesAt_70 3.2714285714286
scalar BlockchainNetwork.iotNode[53] AverageBadServicesAt_70 3.2714285714286
scalar BlockchainNetwork.iotNode[54] AverageBadServicesAt_70 3.2714285714286
scalar BlockchainNetwork.iotNode[55] AverageBadServicesAt_70 3.2714285714286
scalar BlockchainNetwork.iotNode[56] AverageBadServicesAt_70 3.2714285714286
scalar BlockchainNetwork.iotNode[57] AverageBadServicesAt_70 3.2714285714286
scalar BlockchainNetwork.iotNode[58] AverageBadServicesAt_70 3.2714285714286
scalar BlockchainNetwork.iotNode[59] AverageBadServicesAt_70 3.2714285714286
scalar BlockchainNetwork.iotNode[60] AverageBadServicesAt_70 3.2714285714286
scalar BlockchainNetwork.iotNode[61] AverageBadServicesAt_70 3.2714285714286
scalar BlockchainNetwork.iotNode[62] AverageBadServicesAt_70 3.2714285714286
scalar BlockchainNetwork.iotNode[63] AverageBadServicesAt_70 3.2714285714286
scalar BlockchainNetwork.iotNode[64] AverageBadServicesAt_70 3.2714285714286
scalar BlockchainNetwork.iotNode[65] AverageBadServicesAt_70 3.2714285714286
scalar BlockchainNetwork.iotNode[66] AverageBadServicesAt_70 3.2714285714286
scalar BlockchainNetwork.iotNode[67] AverageBadServicesAt_70 3.2714285714286
scalar BlockchainNetwork.iotNode[68] AverageBadServicesAt_70 3.2714285714286
scalar BlockchainNetwork.iotNode[69] AverageBadServicesAt_70 3.2714285714286
scalar BlockchainNetwork.iotNode[70] AverageBadServicesAt_70 3.2714285714286
scalar BlockchainNetwork.iotNode[71] AverageBadServicesAt_70 3.2714285714286
scalar BlockchainNetwork.iotNode[72] AverageBadServicesAt_70 3.2714285714286
scalar BlockchainNetwork.iotNode[73] AverageBadServicesAt_70 3.2714285714286
scalar BlockchainNetwork.iotNode[74] AverageBadServicesAt_70 3.2714285714286
scalar BlockchainNetwork.iotNode[75] AverageBadServicesAt_70 3.2714285714286
scalar BlockchainNetwork.iotNode[76] AverageBadServicesAt_70 3.2714285714286
scalar BlockchainNetwork.iotNode[77] AverageBadServicesAt_70 3.2714285714286
scalar BlockchainNetwork.iotNode[78] AverageBadServicesAt_70 3.2714285714286
scalar BlockchainNetwork.iotNode[79] AverageBadServicesAt_70 3.2714285714286
scalar BlockchainNetwork.iotNode[80] AverageBadServicesAt_70 3.2714285714286
scalar BlockchainNetwork.iotNode[81] AverageBadServicesAt_70 3.2714285714286
scalar BlockchainNetwork.iotNode[82] AverageBadServicesAt_70 3.2714285714286
scalar BlockchainNetwork.iotNode[83] AverageBadServicesAt_70 3.2714285714286
scalar BlockchainNetwork.iotNode[84] AverageBadServicesAt_70 3.2714285714286
scalar BlockchainNetwork.iotNode[85] AverageBadServicesAt_70 3.2714285714286
scalar BlockchainNetwork.iotNode[86] AverageBadServicesAt_70 3.2714285714286
scalar BlockchainNetwork.iotNode[87] AverageBadServicesAt_70 3.2714285714286
scalar BlockchainNetwork.iotNode[88] AverageBadServicesAt_70 3.2714285714286
scalar BlockchainNetwork.iotNode[89] AverageBadServicesAt_70 3.2714285714286
scalar BlockchainNetwork.iotNode[90] AverageBadServicesAt_70 3.2714285714286
scalar BlockchainNetwork.iotNode[91] AverageBadServicesAt_70 3.2714285714286
scalar BlockchainNetwork.iotNode[92] AverageBadServicesAt_70 3.2714285714286
scalar BlockchainNetwork.iotNode[93] AverageBadServicesAt_70 3.2714285714286
scalar BlockchainNetwork.iotNode[94] AverageBadServicesAt_70 3.2714285714286
scalar BlockchainNetwork.iotNode[95] AverageBadServicesAt_70 3.2714285714286
scalar BlockchainNetwork.iotNode[96] AverageBadServicesAt_70 3.2714285714286
scalar BlockchainNetwork.iotNode[97] AverageBadServicesAt_70 3.2714285714286
scalar BlockchainNetwork.iotNode[98] AverageBadServicesAt_70 3.2714285714286
scalar BlockchainNetwork.iotNode[99] AverageBadServicesAt_70 3.2714285714286
scalar BlockchainNetwork.iotNode[0] AverageBadServicesAt_80 3.4714285714286
scalar BlockchainNetwork.iotNode[1] AverageBadServicesAt_80 3.4714285714286
scalar BlockchainNetwork.iotNode[2] AverageBadServicesAt_80 3.4714285714286
scalar BlockchainNetwork.iotNode[3] AverageBadServicesAt_80 3.4714285714286
scalar BlockchainNetwork.iotNode[4] AverageBadServicesAt_80 3.4714285714286
scalar BlockchainNetwork.iotNode[5] AverageBadServicesAt_80 3.4714285714286
scalar BlockchainNetwork.iotNode[6] AverageBadServicesAt_80 3.4714285714286
scalar BlockchainNetwork.iotNode[7] AverageBadServicesAt_80 3.4714285714286
scalar BlockchainNetwork.iotNode[8] AverageBadServicesAt_80 3.4714285714286
scalar BlockchainNetwork.iotNode[9] AverageBadServicesAt_80 3.4714285714286
scalar BlockchainNetwork.iotNode[10] AverageBadServicesAt_80 3.4714285714286
scalar BlockchainNetwork.iotNode[11] AverageBadServicesAt_80 3.4714285714286
scalar BlockchainNetwork.iotNode[12] AverageBadServicesAt_80 3.4714285714286
scalar BlockchainNetwork.iotNode[13] AverageBadServicesAt_80 3.4714285714286
scalar BlockchainNetwork.iotNode[14] AverageBadServicesAt_80 3.4714285714286
scalar BlockchainNetwork.iotNode[15] AverageBadServicesAt_80 3.4714285714286
scalar BlockchainNetwork.iotNode[16] AverageBadServicesAt_80 3.4714285714286
scalar BlockchainNetwork.iotNode[17] AverageBadServicesAt_80 3.4714285714286
scalar BlockchainNetwork.iotNode[18] AverageBadServicesAt_80 3.4714285714286
scalar BlockchainNetwork.iotNode[19] AverageBadServicesAt_80 3.4714285714286
scalar BlockchainNetwork.iotNode[20] AverageBadServicesAt_80 3.4714285714286
scalar BlockchainNetwork.iotNode[21] AverageBadServicesAt_80 3.4714285714286
scalar BlockchainNetwork.iotNode[22] AverageBadServicesAt_80 3.4714285714286
scalar BlockchainNetwork.iotNode[23] AverageBadServicesAt_80 3.4714285714286
scalar BlockchainNetwork.iotNode[24] AverageBadServicesAt_80 3.4714285714286
scalar BlockchainNetwork.iotNode[25] AverageBadServicesAt_80 3.4714285714286
scalar BlockchainNetwork.iotNode[26] AverageBadServicesAt_80 3.4714285714286
scalar BlockchainNetwork.iotNode[27] AverageBadServicesAt_80 3.4714285714286
scalar BlockchainNetwork.iotNode[28] AverageBadServicesAt_80 3.4714285714286
scalar BlockchainNetwork.iotNode[29] AverageBadServicesAt_80 3.4714285714286
scalar BlockchainNetwork.iotNode[30] AverageBadServicesAt_80 3.4714285714286
scalar BlockchainNetwork.iotNode[31] AverageBadServicesAt_80 3.4714285714286
scalar BlockchainNetwork.iotNode[32] AverageBadServicesAt_80 3.4714285714286
scalar BlockchainNetwork.iotNode[33] AverageBadServicesAt_80 3.4714285714286
scalar BlockchainNetwork.iotNode[34] AverageBadServicesAt_80 3.4714285714286
scalar BlockchainNetwork.iotNode[35] AverageBadServicesAt_80 3.4714285714286
scalar BlockchainNetwork.iotNode[36] AverageBadServicesAt_80 3.4714285714286
scalar BlockchainNetwork.iotNode[37] AverageBadServicesAt_80 3.4714285714286
scalar BlockchainNetwork.iotNode[38] AverageBadServicesAt_80 3.4714285714286
scalar BlockchainNetwork.iotNode[39] AverageBadServicesAt_80 3.4714285714286
scalar BlockchainNetwork.iotNode[40] AverageBadServicesAt_80 3.4714285714286
scalar BlockchainNetwork.iotNode[41] AverageBadServicesAt_80 3.4714285714286
scalar BlockchainNetwork.iotNode[42] AverageBadServicesAt_80 3.4714285714286
scalar BlockchainNetwork.iotNode[43] AverageBadServicesAt_80 3.4714285714286
scalar BlockchainNetwork.iotNode[44] AverageBadServicesAt_80 3.4714285714286
scalar BlockchainNetwork.iotNode[45] AverageBadServicesAt_80 3.4714285714286
scalar BlockchainNetwork.iotNode[46] AverageBadServicesAt_80 3.4714285714286
scalar BlockchainNetwork.iotNode[47] AverageBadServicesAt_80 3.4714285714286
scalar BlockchainNetwork.iotNode[48] AverageBadServicesAt_80 3.4714285714286
scalar BlockchainNetwork.iotNode[49] AverageBadServicesAt_80 3.4714285714286
scalar BlockchainNetwork.iotNode[50] AverageBadServicesAt_80 3.4714285714286
scalar BlockchainNetwork.iotNode[51] AverageBadServicesAt_80 3.4714285714286
scalar BlockchainNetwork.iotNode[52] AverageBadServicesAt_80 3.4714285714286
scalar BlockchainNetwork.iotNode[53] AverageBadServicesAt_80 3.4714285714286
scalar BlockchainNetwork.iotNode[54] AverageBadServicesAt_80 3.4714285714286
scalar BlockchainNetwork.iotNode[55] AverageBadServicesAt_80 3.4714285714286
scalar BlockchainNetwork.iotNode[56] AverageBadServicesAt_80 3.4714285714286
scalar BlockchainNetwork.iotNode[57] AverageBadServicesAt_80 3.4714285714286
scalar BlockchainNetwork.iotNode[58] AverageBadServicesAt_80 3.4714285714286
scalar BlockchainNetwork.iotNode[59] AverageBadServicesAt_80 3.4714285714286
scalar BlockchainNetwork.iotNode[60] AverageBadServicesAt_80 3.4714285714286
scalar BlockchainNetwork.iotNode[61] AverageBadServicesAt_80 3.4714285714286
scalar BlockchainNetwork.iotNode[62] AverageBadServicesAt_80 3.4714285714286
scalar BlockchainNetwork.iotNode[63] AverageBadServicesAt_80 3.4714285714286
scalar BlockchainNetwork.iotNode[64] AverageBadServicesAt_80 3.4714285714286
scalar BlockchainNetwork.iotNode[65] AverageBadServicesAt_80 3.4714285714286
scalar BlockchainNetwork.iotNode[66] AverageBadServicesAt_80 3.4714285714286
scalar BlockchainNetwork.iotNode[67] AverageBadServicesAt_80 3.4714285714286
scalar BlockchainNetwork.iotNode[68] AverageBadServicesAt_80 3.4714285714286
scalar BlockchainNetwork.iotNode[69] AverageBadServicesAt_80 3.4714285714286
scalar BlockchainNetwork.iotNode[70] AverageBadServicesAt_80 3.4714285714286
scalar BlockchainNetwork.iotNode[71] AverageBadServicesAt_80 3.4714285714286
scalar BlockchainNetwork.iotNode[72] AverageBadServicesAt_80 3.4714285714286
scalar BlockchainNetwork.iotNode[73] AverageBadServicesAt_80 3.4714285714286
scalar BlockchainNetwork.iotNode[74] AverageBadServicesAt_80 3.4714285714286
scalar BlockchainNetwork.iotNode[75] AverageBadServicesAt_80 3.4714285714286
scalar BlockchainNetwork.iotNode[76] AverageBadServicesAt_80 3.4714285714286
scalar BlockchainNetwork.iotNode[77] AverageBadServicesAt_80 3.4714285714286
scalar BlockchainNetwork.iotNode[78] AverageBadServicesAt_80 3.4714285714286
scalar BlockchainNetwork.iotNode[79] AverageBadServicesAt_80 3.4714285714286
scalar BlockchainNetwork.iotNode[80] AverageBadServicesAt_80 3.4714285714286
scalar BlockchainNetwork.iotNode[81] AverageBadServicesAt_80 3.4714285714286
scalar BlockchainNetwork.iotNode[82] AverageBadServicesAt_80 3.4714285714286
scalar BlockchainNetwork.iotNode[83] AverageBadServicesAt_80 3.4714285714286
scalar BlockchainNetwork.iotNode[84] AverageBadServicesAt_80 3.4714285714286
scalar BlockchainNetwork.iotNode[85] AverageBadServicesAt_80 3.4714285714286
scalar BlockchainNetwork.iotNode[86] AverageBadServicesAt_80 3.4714285714286
scalar BlockchainNetwork.iotNode[87] AverageBadServicesAt_80 3.4714285714286
scalar BlockchainNetwork.iotNode[88] AverageBadServicesAt_80 3.4714285714286
scalar BlockchainNetwork.iotNode[89] AverageBadServicesAt_80 3.4714285714286
scalar BlockchainNetwork.iotNode[90] AverageBadServicesAt_80 3.4714285714286
scalar BlockchainNetwork.iotNode[91] AverageBadServicesAt_80 3.4714285714286
scalar BlockchainNetwork.iotNode[92] AverageBadServicesAt_80 3.4714285714286
scalar BlockchainNetwork.iotNode[93] AverageBadServicesAt_80 3.4714285714286
scalar BlockchainNetwork.iotNode[94] AverageBadServicesAt_80 3.4714285714286
scalar BlockchainNetwork.iotNode[95] AverageBadServicesAt_80 3.4714285714286
scalar BlockchainNetwork.iotNode[96] AverageBadServicesAt_80 3.4714285714286
scalar BlockchainNetwork.iotNode[97] AverageBadServicesAt_80 3.4714285714286
scalar BlockchainNetwork.iotNode[98] AverageBadServicesAt_80 3.4714285714286
scalar BlockchainNetwork.iotNode[99] AverageBadServicesAt_80 3.4714285714286
scalar BlockchainNetwork.iotNode[0] AverageBadServicesAt_90 3.7
scalar BlockchainNetwork.iotNode[1] AverageBadServicesAt_90 3.7
scalar BlockchainNetwork.iotNode[2] AverageBadServicesAt_90 3.7
scalar BlockchainNetwork.iotNode[3] AverageBadServicesAt_90 3.7
scalar BlockchainNetwork.iotNode[4] AverageBadServicesAt_90 3.7
scalar BlockchainNetwork.iotNode[5] AverageBadServicesAt_90 3.7
scalar BlockchainNetwork.iotNode[6] AverageBadServicesAt_90 3.7
scalar BlockchainNetwork.iotNode[7] AverageBadServicesAt_90 3.7
scalar BlockchainNetwork.iotNode[8] AverageBadServicesAt_90 3.7
scalar BlockchainNetwork.iotNode[9] AverageBadServicesAt_90 3.7
scalar BlockchainNetwork.iotNode[10] AverageBadServicesAt_90 3.7
scalar BlockchainNetwork.iotNode[11] AverageBadServicesAt_90 3.7
scalar BlockchainNetwork.iotNode[12] AverageBadServicesAt_90 3.7
scalar BlockchainNetwork.iotNode[13] AverageBadServicesAt_90 3.7
scalar BlockchainNetwork.iotNode[14] AverageBadServicesAt_90 3.7
scalar BlockchainNetwork.iotNode[15] AverageBadServicesAt_90 3.7
scalar BlockchainNetwork.iotNode[16] AverageBadServicesAt_90 3.7
scalar BlockchainNetwork.iotNode[17] AverageBadServicesAt_90 3.7
scalar BlockchainNetwork.iotNode[18] AverageBadServicesAt_90 3.7
scalar BlockchainNetwork.iotNode[19] AverageBadServicesAt_90 3.7
scalar BlockchainNetwork.iotNode[20] AverageBadServicesAt_90 3.7
scalar BlockchainNetwork.iotNode[21] AverageBadServicesAt_90 3.7
scalar BlockchainNetwork.iotNode[22] AverageBadServicesAt_90 3.7
scalar BlockchainNetwork.iotNode[23] AverageBadServicesAt_90 3.7
scalar BlockchainNetwork.iotNode[24] AverageBadServicesAt_90 3.7
scalar BlockchainNetwork.iotNode[25] AverageBadServicesAt_90 3.7
scalar BlockchainNetwork.iotNode[26] AverageBadServicesAt_90 3.7
scalar BlockchainNetwork.iotNode[27] AverageBadServicesAt_90 3.7
scalar BlockchainNetwork.iotNode[28] AverageBadServicesAt_90 3.7
scalar BlockchainNetwork.iotNode[29] AverageBadServicesAt_90 3.7
scalar BlockchainNetwork.iotNode[30] AverageBadServicesAt_90 3.7
scalar BlockchainNetwork.iotNode[31] AverageBadServicesAt_90 3.7
scalar BlockchainNetwork.iotNode[32] AverageBadServicesAt_90 3.7
scalar BlockchainNetwork.iotNode[33] AverageBadServicesAt_90 3.7
scalar BlockchainNetwork.iotNode[34] AverageBadServicesAt_90 3.7
scalar BlockchainNetwork.iotNode[35] AverageBadServicesAt_90 3.7
scalar BlockchainNetwork.iotNode[36] AverageBadServicesAt_90 3.7
scalar BlockchainNetwork.iotNode[37] AverageBadServicesAt_90 3.7
scalar BlockchainNetwork.iotNode[38] AverageBadServicesAt_90 3.7
scalar BlockchainNetwork.iotNode[39] AverageBadServicesAt_90 3.7
scalar BlockchainNetwork.iotNode[40] AverageBadServicesAt_90 3.7
scalar BlockchainNetwork.iotNode[41] AverageBadServicesAt_90 3.7
scalar BlockchainNetwork.iotNode[42] AverageBadServicesAt_90 3.7
scalar BlockchainNetwork.iotNode[43] AverageBadServicesAt_90 3.7
scalar BlockchainNetwork.iotNode[44] AverageBadServicesAt_90 3.7
scalar BlockchainNetwork.iotNode[45] AverageBadServicesAt_90 3.7
scalar BlockchainNetwork.iotNode[46] AverageBadServicesAt_90 3.7
scalar BlockchainNetwork.iotNode[47] AverageBadServicesAt_90 3.7
scalar BlockchainNetwork.iotNode[48] AverageBadServicesAt_90 3.7
scalar BlockchainNetwork.iotNode[49] AverageBadServicesAt_90 3.7
scalar BlockchainNetwork.iotNode[50] AverageBadServicesAt_90 3.7
scalar BlockchainNetwork.iotNode[51] AverageBadServicesAt_90 3.7
scalar BlockchainNetwork.iotNode[52] AverageBadServicesAt_90 3.7
scalar BlockchainNetwork.iotNode[53] AverageBadServicesAt_90 3.7
scalar BlockchainNetwork.iotNode[54] AverageBadServicesAt_90 3.7
scalar BlockchainNetwork.iotNode[55] AverageBadServicesAt_90 3.7
scalar BlockchainNetwork.iotNode[56] AverageBadServicesAt_90 3.7
scalar BlockchainNetwork.iotNode[57] AverageBadServicesAt_90 3.7
scalar BlockchainNetwork.iotNode[58] AverageBadServicesAt_90 3.7
scalar BlockchainNetwork.iotNode[59] AverageBadServicesAt_90 3.7
scalar BlockchainNetwork.iotNode[60] AverageBadServicesAt_90 3.7
scalar BlockchainNetwork.iotNode[61] AverageBadServicesAt_90 3.7
scalar BlockchainNetwork.iotNode[62] AverageBadServicesAt_90 3.7
scalar BlockchainNetwork.iotNode[63] AverageBadServicesAt_90 3.7
scalar BlockchainNetwork.iotNode[64] AverageBadServicesAt_90 3.7
scalar BlockchainNetwork.iotNode[65] AverageBadServicesAt_90 3.7
scalar BlockchainNetwork.iotNode[66] AverageBadServicesAt_90 3.7
scalar BlockchainNetwork.iotNode[67] AverageBadServicesAt_90 3.7
scalar BlockchainNetwork.iotNode[68] AverageBadServicesAt_90 3.7
scalar BlockchainNetwork.iotNode[69] AverageBadServicesAt_90 3.7
scalar BlockchainNetwork.iotNode[70] AverageBadServicesAt_90 3.7
scalar BlockchainNetwork.iotNode[71] AverageBadServicesAt_90 3.7
scalar BlockchainNetwork.iotNode[72] AverageBadServicesAt_90 3.7
scalar BlockchainNetwork.iotNode[73] AverageBadServicesAt_90 3.7
scalar BlockchainNetwork.iotNode[74] AverageBadServicesAt_90 3.7
scalar BlockchainNetwork.iotNode[75] AverageBadServicesAt_90 3.7
scalar BlockchainNetwork.iotNode[76] AverageBadServicesAt_90 3.7
scalar BlockchainNetwork.iotNode[77] AverageBadServicesAt_90 3.7
scalar BlockchainNetwork.iotNode[78] AverageBadServicesAt_90 3.7
scalar BlockchainNetwork.iotNode[79] AverageBadServicesAt_90 3.7
scalar BlockchainNetwork.iotNode[80] AverageBadServicesAt_90 3.7
scalar BlockchainNetwork.iotNode[81] AverageBadServicesAt_90 3.7
scalar BlockchainNetwork.iotNode[82] AverageBadServicesAt_90 3.7
scalar BlockchainNetwork.iotNode[83] AverageBadServicesAt_90 3.7
scalar BlockchainNetwork.iotNode[84] AverageBadServicesAt_90 3.7
scalar BlockchainNetwork.iotNode[85] AverageBadServicesAt_90 3.7
scalar BlockchainNetwork.iotNode[86] AverageBadServicesAt_90 3.7
scalar BlockchainNetwork.iotNode[87] AverageBadServicesAt_90 3.7
scalar BlockchainNetwork.iotNode[88] AverageBadServicesAt_90 3.7
scalar BlockchainNetwork.iotNode[89] AverageBadServicesAt_90 3.7
scalar BlockchainNetwork.iotNode[90] AverageBadServicesAt_90 3.7
scalar BlockchainNetwork.iotNode[91] AverageBadServicesAt_90 3.7
scalar BlockchainNetwork.iotNode[92] AverageBadServicesAt_90 3.7
scalar BlockchainNetwork.iotNode[93] AverageBadServicesAt_90 3.7
scalar BlockchainNetwork.iotNode[94] AverageBadServicesAt_90 3.7
scalar BlockchainNetwork.iotNode[95] AverageBadServicesAt_90 3.7
scalar BlockchainNetwork.iotNode[96] AverageBadServicesAt_90 3.7
scalar BlockchainNetwork.iotNode[97] AverageBadServicesAt_90 3.7
scalar BlockchainNetwork.iotNode[98] AverageBadServicesAt_90 3.7
scalar BlockchainNetwork.iotNode[99] AverageBadServicesAt_90 3.7
scalar BlockchainNetwork.iotNode[0] AverageBadServicesAt_100 3.8714285714286
scalar BlockchainNetwork.iotNode[1] AverageBadServicesAt_100 3.8714285714286
scalar BlockchainNetwork.iotNode[2] AverageBadServicesAt_100 3.8714285714286
scalar BlockchainNetwork.iotNode[3] AverageBadServicesAt_100 3.8714285714286
scalar BlockchainNetwork.iotNode[4] AverageBadServicesAt_100 3.8714285714286
scalar BlockchainNetwork.iotNode[5] AverageBadServicesAt_100 3.8714285714286
scalar BlockchainNetwork.iotNode[6] AverageBadServicesAt_100 3.8714285714286
scalar BlockchainNetwork.iotNode[7] AverageBadServicesAt_100 3.8714285714286
scalar BlockchainNetwork.iotNode[8] AverageBadServicesAt_100 3.8714285714286
scalar BlockchainNetwork.iotNode[9] AverageBadServicesAt_100 3.8714285714286
scalar BlockchainNetwork.iotNode[10] AverageBadServicesAt_100 3.8714285714286
scalar BlockchainNetwork.iotNode[11] AverageBadServicesAt_100 3.8714285714286
scalar BlockchainNetwork.iotNode[12] AverageBadServicesAt_100 3.8714285714286
scalar BlockchainNetwork.iotNode[13] AverageBadServicesAt_100 3.8714285714286
scalar BlockchainNetwork.iotNode[14] AverageBadServicesAt_100 3.8714285714286
scalar BlockchainNetwork.iotNode[15] AverageBadServicesAt_100 3.8714285714286
scalar BlockchainNetwork.iotNode[16] AverageBadServicesAt_100 3.8714285714286
scalar BlockchainNetwork.iotNode[17] AverageBadServicesAt_100 3.8714285714286
scalar BlockchainNetwork.iotNode[18] AverageBadServicesAt_100 3.8714285714286
scalar BlockchainNetwork.iotNode[19] AverageBadServicesAt_100 3.8714285714286
scalar BlockchainNetwork.iotNode[20] AverageBadServicesAt_100 3.8714285714286
scalar BlockchainNetwork.iotNode[21] AverageBadServicesAt_100 3.8714285714286
scalar BlockchainNetwork.iotNode[22] AverageBadServicesAt_100 3.8714285714286
scalar BlockchainNetwork.iotNode[23] AverageBadServicesAt_100 3.8714285714286
scalar BlockchainNetwork.iotNode[24] AverageBadServicesAt_100 3.8714285714286
scalar BlockchainNetwork.iotNode[25] AverageBadServicesAt_100 3.8714285714286
scalar BlockchainNetwork.iotNode[26] AverageBadServicesAt_100 3.8714285714286
scalar BlockchainNetwork.iotNode[27] AverageBadServicesAt_100 3.8714285714286
scalar BlockchainNetwork.iotNode[28] AverageBadServicesAt_100 3.8714285714286
scalar BlockchainNetwork.iotNode[29] AverageBadServicesAt_100 3.8714285714286
scalar BlockchainNetwork.iotNode[30] AverageBadServicesAt_100 3.8714285714286
scalar BlockchainNetwork.iotNode[31] AverageBadServicesAt_100 3.8714285714286
scalar BlockchainNetwork.iotNode[32] AverageBadServicesAt_100 3.8714285714286
scalar BlockchainNetwork.iotNode[33] AverageBadServicesAt_100 3.8714285714286
scalar BlockchainNetwork.iotNode[34] AverageBadServicesAt_100 3.8714285714286
scalar BlockchainNetwork.iotNode[35] AverageBadServicesAt_100 3.8714285714286
scalar BlockchainNetwork.iotNode[36] AverageBadServicesAt_100 3.8714285714286
scalar BlockchainNetwork.iotNode[37] AverageBadServicesAt_100 3.8714285714286
scalar BlockchainNetwork.iotNode[38] AverageBadServicesAt_100 3.8714285714286
scalar BlockchainNetwork.iotNode[39] AverageBadServicesAt_100 3.8714285714286
scalar BlockchainNetwork.iotNode[40] AverageBadServicesAt_100 3.8714285714286
scalar BlockchainNetwork.iotNode[41] AverageBadServicesAt_100 3.8714285714286
scalar BlockchainNetwork.iotNode[42] AverageBadServicesAt_100 3.8714285714286
scalar BlockchainNetwork.iotNode[43] AverageBadServicesAt_100 3.8714285714286
scalar BlockchainNetwork.iotNode[44] AverageBadServicesAt_100 3.8714285714286
scalar BlockchainNetwork.iotNode[45] AverageBadServicesAt_100 3.8714285714286
scalar BlockchainNetwork.iotNode[46] AverageBadServicesAt_100 3.8714285714286
scalar BlockchainNetwork.iotNode[47] AverageBadServicesAt_100 3.8714285714286
scalar BlockchainNetwork.iotNode[48] AverageBadServicesAt_100 3.8714285714286
scalar BlockchainNetwork.iotNode[49] AverageBadServicesAt_100 3.8714285714286
scalar BlockchainNetwork.iotNode[50] AverageBadServicesAt_100 3.8714285714286
scalar BlockchainNetwork.iotNode[51] AverageBadServicesAt_100 3.8714285714286
scalar BlockchainNetwork.iotNode[52] AverageBadServicesAt_100 3.8714285714286
scalar BlockchainNetwork.iotNode[53] AverageBadServicesAt_100 3.8714285714286
scalar BlockchainNetwork.iotNode[54] AverageBadServicesAt_100 3.8714285714286
scalar BlockchainNetwork.iotNode[55] AverageBadServicesAt_100 3.8714285714286
scalar BlockchainNetwork.iotNode[56] AverageBadServicesAt_100 3.8714285714286
scalar BlockchainNetwork.iotNode[57] AverageBadServicesAt_100 3.8714285714286
scalar BlockchainNetwork.iotNode[58] AverageBadServicesAt_100 3.8714285714286
scalar BlockchainNetwork.iotNode[59] AverageBadServicesAt_100 3.8714285714286
scalar BlockchainNetwork.iotNode[60] AverageBadServicesAt_100 3.8714285714286
scalar BlockchainNetwork.iotNode[61] AverageBadServicesAt_100 3.8714285714286
scalar BlockchainNetwork.iotNode[62] AverageBadServicesAt_100 3.8714285714286
scalar BlockchainNetwork.iotNode[63] AverageBadServicesAt_100 3.8714285714286
scalar BlockchainNetwork.iotNode[64] AverageBadServicesAt_100 3.8714285714286
scalar BlockchainNetwork.iotNode[65] AverageBadServicesAt_100 3.8714285714286
scalar BlockchainNetwork.iotNode[66] AverageBadServicesAt_100 3.8714285714286
scalar BlockchainNetwork.iotNode[67] AverageBadServicesAt_100 3.8714285714286
scalar BlockchainNetwork.iotNode[68] AverageBadServicesAt_100 3.8714285714286
scalar BlockchainNetwork.iotNode[69] AverageBadServicesAt_100 3.8714285714286
scalar BlockchainNetwork.iotNode[70] AverageBadServicesAt_100 3.8714285714286
scalar BlockchainNetwork.iotNode[71] AverageBadServicesAt_100 3.8714285714286
scalar BlockchainNetwork.iotNode[72] AverageBadServicesAt_100 3.8714285714286
scalar BlockchainNetwork.iotNode[73] AverageBadServicesAt_100 3.8714285714286
scalar BlockchainNetwork.iotNode[74] AverageBadServicesAt_100 3.8714285714286
scalar BlockchainNetwork.iotNode[75] AverageBadServicesAt_100 3.8714285714286
scalar BlockchainNetwork.iotNode[76] AverageBadServicesAt_100 3.8714285714286
scalar BlockchainNetwork.iotNode[77] AverageBadServicesAt_100 3.8714285714286
scalar BlockchainNetwork.iotNode[78] AverageBadServicesAt_100 3.8714285714286
scalar BlockchainNetwork.iotNode[79] AverageBadServicesAt_100 3.8714285714286
scalar BlockchainNetwork.iotNode[80] AverageBadServicesAt_100 3.8714285714286
scalar BlockchainNetwork.iotNode[81] AverageBadServicesAt_100 3.8714285714286
scalar BlockchainNetwork.iotNode[82] AverageBadServicesAt_100 3.8714285714286
scalar BlockchainNetwork.iotNode[83] AverageBadServicesAt_100 3.8714285714286
scalar BlockchainNetwork.iotNode[84] AverageBadServicesAt_100 3.8714285714286
scalar BlockchainNetwork.iotNode[85] AverageBadServicesAt_100 3.8714285714286
scalar BlockchainNetwork.iotNode[86] AverageBadServicesAt_100 3.8714285714286
scalar BlockchainNetwork.iotNode[87] AverageBadServicesAt_100 3.8714285714286
scalar BlockchainNetwork.iotNode[88] AverageBadServicesAt_100 3.8714285714286
scalar BlockchainNetwork.iotNode[89] AverageBadServicesAt_100 3.8714285714286
scalar BlockchainNetwork.iotNode[90] AverageBadServicesAt_100 3.8714285714286
scalar BlockchainNetwork.iotNode[91] AverageBadServicesAt_100 3.8714285714286
scalar BlockchainNetwork.iotNode[92] AverageBadServicesAt_100 3.8714285714286
scalar BlockchainNetwork.iotNode[93] AverageBadServicesAt_100 3.8714285714286
scalar BlockchainNetwork.iotNode[94] AverageBadServicesAt_100 3.8714285714286
scalar BlockchainNetwork.iotNode[95] AverageBadServicesAt_100 3.8714285714286
scalar BlockchainNetwork.iotNode[96] AverageBadServicesAt_100 3.8714285714286
scalar BlockchainNetwork.iotNode[97] AverageBadServicesAt_100 3.8714285714286
scalar BlockchainNetwork.iotNode[98] AverageBadServicesAt_100 3.8714285714286
scalar BlockchainNetwork.iotNode[99] AverageBadServicesAt_100 3.8714285714286
scalar BlockchainNetwork.iotNode[0] AverageBadServicesAt_110 4.0285714285714
scalar BlockchainNetwork.iotNode[1] AverageBadServicesAt_110 4.0285714285714
scalar BlockchainNetwork.iotNode[2] AverageBadServicesAt_110 4.0285714285714
scalar BlockchainNetwork.iotNode[3] AverageBadServicesAt_110 4.0285714285714
scalar BlockchainNetwork.iotNode[4] AverageBadServicesAt_110 4.0285714285714
scalar BlockchainNetwork.iotNode[5] AverageBadServicesAt_110 4.0285714285714
scalar BlockchainNetwork.iotNode[6] AverageBadServicesAt_110 4.0285714285714
scalar BlockchainNetwork.iotNode[7] AverageBadServicesAt_110 4.0285714285714
scalar BlockchainNetwork.iotNode[8] AverageBadServicesAt_110 4.0285714285714
scalar BlockchainNetwork.iotNode[9] AverageBadServicesAt_110 4.0285714285714
scalar BlockchainNetwork.iotNode[10] AverageBadServicesAt_110 4.0285714285714
scalar BlockchainNetwork.iotNode[11] AverageBadServicesAt_110 4.0285714285714
scalar BlockchainNetwork.iotNode[12] AverageBadServicesAt_110 4.0285714285714
scalar BlockchainNetwork.iotNode[13] AverageBadServicesAt_110 4.0285714285714
scalar BlockchainNetwork.iotNode[14] AverageBadServicesAt_110 4.0285714285714
scalar BlockchainNetwork.iotNode[15] AverageBadServicesAt_110 4.0285714285714
scalar BlockchainNetwork.iotNode[16] AverageBadServicesAt_110 4.0285714285714
scalar BlockchainNetwork.iotNode[17] AverageBadServicesAt_110 4.0285714285714
scalar BlockchainNetwork.iotNode[18] AverageBadServicesAt_110 4.0285714285714
scalar BlockchainNetwork.iotNode[19] AverageBadServicesAt_110 4.0285714285714
scalar BlockchainNetwork.iotNode[20] AverageBadServicesAt_110 4.0285714285714
scalar BlockchainNetwork.iotNode[21] AverageBadServicesAt_110 4.0285714285714
scalar BlockchainNetwork.iotNode[22] AverageBadServicesAt_110 4.0285714285714
scalar BlockchainNetwork.iotNode[23] AverageBadServicesAt_110 4.0285714285714
scalar BlockchainNetwork.iotNode[24] AverageBadServicesAt_110 4.0285714285714
scalar BlockchainNetwork.iotNode[25] AverageBadServicesAt_110 4.0285714285714
scalar BlockchainNetwork.iotNode[26] AverageBadServicesAt_110 4.0285714285714
scalar BlockchainNetwork.iotNode[27] AverageBadServicesAt_110 4.0285714285714
scalar BlockchainNetwork.iotNode[28] AverageBadServicesAt_110 4.0285714285714
[...]
scalar BlockchainNetwork.iotNode[81] "Ability of the node" 15.729903904287
scalar BlockchainNetwork.iotNode[81] FinalAverageBadServices 4.8857142857143
par BlockchainNetwork.iotNode[82] typename "\"src.IoTNode\""
par BlockchainNetwork.iotNode[82] maliciousNodePercentage 0.3
par BlockchainNetwork.iotNode[82] attackerType 1
scalar BlockchainNetwork.iotNode[82] TrustOf_84_in_91 0.60457329420751
scalar BlockchainNetwork.iotNode[82] TrustOf_84_in_90 0.99466914419321
scalar BlockchainNetwork.iotNode[82] TrustOf_84_in_89 0.96142274199723
scalar BlockchainNetwork.iotNode[82] TrustOf_84_in_88 0.99501350183648
scalar BlockchainNetwork.iotNode[82] TrustOf_84_in_87 0.99336548112018
scalar BlockchainNetwork.iotNode[82] TrustOf_84_in_86 0.99433573827817
scalar BlockchainNetwork.iotNode[82] TrustOf_84_in_72 0
scalar BlockchainNetwork.iotNode[82] TrustOf_84_in_85 0.99905897923447
scalar BlockchainNetwork.iotNode[82] TrustOf_84_in_83 0
scalar BlockchainNetwork.iotNode[82] TrustOf_84_in_82 0.99107695448039
scalar BlockchainNetwork.iotNode[82] "Local Trust to Node 84" 0.89051682310479
scalar BlockchainNetwork.iotNode[82] "Ability of the node" 9.3675557407635
scalar BlockchainNetwork.iotNode[82] FinalBadServicesReceived 2
scalar BlockchainNetwork.iotNode[82] FinalAverageBadServices 4.8857142857143
par BlockchainNetwork.iotNode[83] typename "\"src.IoTNode\""
par BlockchainNetwork.iotNode[83] maliciousNodePercentage 0.3
par BlockchainNetwork.iotNode[83] attackerType 1
scalar BlockchainNetwork.iotNode[83] TrustOf_85_in_72 0
scalar BlockchainNetwork.iotNode[83] TrustOf_85_in_91 0.60504221024888
scalar BlockchainNetwork.iotNode[83] TrustOf_85_in_90 0.99514295511644
scalar BlockchainNetwork.iotNode[83] TrustOf_85_in_89 0.99313960788572
scalar BlockchainNetwork.iotNode[83] TrustOf_85_in_88 0.99647101984169
scalar BlockchainNetwork.iotNode[83] TrustOf_85_in_87 0.99621206168637
scalar BlockchainNetwork.iotNode[83] TrustOf_85_in_86 0.99155456797425
scalar BlockchainNetwork.iotNode[83] TrustOf_85_in_84 0.99782413979391
scalar BlockchainNetwork.iotNode[83] TrustOf_85_in_83 0
scalar BlockchainNetwork.iotNode[83] TrustOf_85_in_82 0.99115962356952
scalar BlockchainNetwork.iotNode[83] "Local Trust to Node 85" 0.80895754318967
scalar BlockchainNetwork.iotNode[83] "Ability of the node" 11.946603957526
scalar BlockchainNetwork.iotNode[83] FinalBadServicesReceived 2
scalar BlockchainNetwork.iotNode[83] FinalAverageBadServices 4.8857142857143
par BlockchainNetwork.iotNode[84] typename "\"src.IoTNode\""
par BlockchainNetwork.iotNode[84] maliciousNodePercentage 0.3
par BlockchainNetwork.iotNode[84] attackerType 1
scalar BlockchainNetwork.iotNode[84] TrustOf_86_in_91 0.48881649766618
scalar BlockchainNetwork.iotNode[84] TrustOf_86_in_90 0.99421546592672
scalar BlockchainNetwork.iotNode[84] TrustOf_86_in_89 0.96230036450264
scalar BlockchainNetwork.iotNode[84] TrustOf_86_in_88 0.99498527517078
scalar BlockchainNetwork.iotNode[84] TrustOf_86_in_87 0.99262085012923
scalar BlockchainNetwork.iotNode[84] TrustOf_86_in_72 0
scalar BlockchainNetwork.iotNode[84] TrustOf_86_in_85 0.82262688347821
scalar BlockchainNetwork.iotNode[84] TrustOf_86_in_84 0.99779751630548
scalar BlockchainNetwork.iotNode[84] TrustOf_86_in_83 0
scalar BlockchainNetwork.iotNode[84] TrustOf_86_in_82 0.99866123087439
scalar BlockchainNetwork.iotNode[84] "Local Trust to Node 86" 0.88259433054785
scalar BlockchainNetwork.iotNode[84] "Ability of the node" 7.3237161453879
scalar BlockchainNetwork.iotNode[84] FinalBadServicesReceived 1
scalar BlockchainNetwork.iotNode[84] FinalAverageBadServices 4.8857142857143
par BlockchainNetwork.iotNode[85] typename "\"src.IoTNode\""
par BlockchainNetwork.iotNode[85] maliciousNodePercentage 0.3
par BlockchainNetwork.iotNode[85] attackerType 1
scalar BlockchainNetwork.iotNode[85] TrustOf_87_in_91 0.7043014424921
scalar BlockchainNetwork.iotNode[85] TrustOf_87_in_90 0.99425839924083
scalar BlockchainNetwork.iotNode[85] TrustOf_87_in_89 0.97485935790569
scalar BlockchainNetwork.iotNode[85] TrustOf_87_in_88 0.99486451651542
scalar BlockchainNetwork.iotNode[85] TrustOf_87_in_86 0.9876796462312
scalar BlockchainNetwork.iotNode[85] TrustOf_87_in_72 0
scalar BlockchainNetwork.iotNode[85] TrustOf_87_in_85 0.82262688347821
scalar BlockchainNetwork.iotNode[85] TrustOf_87_in_84 0.99900239854067
scalar BlockchainNetwork.iotNode[85] TrustOf_87_in_83 0
scalar BlockchainNetwork.iotNode[85] TrustOf_87_in_82 0.99343092552843
scalar BlockchainNetwork.iotNode[85] "Local Trust to Node 87" 0.88880070433985
scalar BlockchainNetwork.iotNode[85] "Ability of the node" 13.21011166365
scalar BlockchainNetwork.iotNode[85] FinalBadServicesReceived 2
scalar BlockchainNetwork.iotNode[85] FinalAverageBadServices 4.8857142857143
par BlockchainNetwork.iotNode[86] typename "\"src.IoTNode\""
par BlockchainNetwork.iotNode[86] maliciousNodePercentage 0.3
par BlockchainNetwork.iotNode[86] attackerType 1
scalar BlockchainNetwork.iotNode[86] TrustOf_88_in_91 0.85809731666389
scalar BlockchainNetwork.iotNode[86] TrustOf_88_in_90 0.99422143450439
scalar BlockchainNetwork.iotNode[86] TrustOf_88_in_89 0.99112839531695
scalar BlockchainNetwork.iotNode[86] TrustOf_88_in_87 0.99844708313378
scalar BlockchainNetwork.iotNode[86] TrustOf_88_in_86 0.98781003569743
scalar BlockchainNetwork.iotNode[86] TrustOf_88_in_84 0.99711710510146
scalar BlockchainNetwork.iotNode[86] TrustOf_88_in_83 0
scalar BlockchainNetwork.iotNode[86] TrustOf_88_in_82 0.99227615804886
scalar BlockchainNetwork.iotNode[86] TrustOf_88_in_85 0.98443424666562
scalar BlockchainNetwork.iotNode[86] TrustOf_88_in_72 0
scalar BlockchainNetwork.iotNode[86] "Local Trust to Node 88" 0.88834890863107
scalar BlockchainNetwork.iotNode[86] "Ability of the node" 7.6987180902046
scalar BlockchainNetwork.iotNode[86] FinalBadServicesReceived 1
scalar BlockchainNetwork.iotNode[86] FinalAverageBadServices 4.8857142857143
par BlockchainNetwork.iotNode[87] typename "\"src.IoTNode\""
par BlockchainNetwork.iotNode[87] maliciousNodePercentage 0.3
par BlockchainNetwork.iotNode[87] attackerType 1
scalar BlockchainNetwork.iotNode[87] TrustOf_89_in_91 0.95364045813818
scalar BlockchainNetwork.iotNode[87] TrustOf_89_in_90 0.99608882963681
scalar BlockchainNetwork.iotNode[87] TrustOf_89_in_88 0.9966603388982
scalar BlockchainNetwork.iotNode[87] TrustOf_89_in_87 0.99643868213067
scalar BlockchainNetwork.iotNode[87] TrustOf_89_in_86 0.98964091515101
scalar BlockchainNetwork.iotNode[87] TrustOf_89_in_84 0.99798747615618
scalar BlockchainNetwork.iotNode[87] TrustOf_89_in_83 0
scalar BlockchainNetwork.iotNode[87] TrustOf_89_in_82 0.98837888491627
scalar BlockchainNetwork.iotNode[87] TrustOf_89_in_85 0.9882609408546
scalar BlockchainNetwork.iotNode[87] TrustOf_89_in_72 0
scalar BlockchainNetwork.iotNode[87] "Local Trust to Node 89" 0.81977788081429
scalar BlockchainNetwork.iotNode[87] "Ability of the node" 10.284581413206
scalar BlockchainNetwork.iotNode[87] FinalBadServicesReceived 0
scalar BlockchainNetwork.iotNode[87] FinalAverageBadServices 4.8857142857143
par BlockchainNetwork.iotNode[88] typename "\"src.IoTNode\""
par BlockchainNetwork.iotNode[88] maliciousNodePercentage 0.3
par BlockchainNetwork.iotNode[88] attackerType 1
scalar BlockchainNetwork.iotNode[88] TrustOf_90_in_91 0.60326751942233
scalar BlockchainNetwork.iotNode[88] TrustOf_90_in_89 0.97207442952438
scalar BlockchainNetwork.iotNode[88] TrustOf_90_in_88 0.99495298416634
scalar BlockchainNetwork.iotNode[88] TrustOf_90_in_87 0.99806547018353
scalar BlockchainNetwork.iotNode[88] TrustOf_90_in_86 0.98716586962714
scalar BlockchainNetwork.iotNode[88] TrustOf_90_in_72 0
scalar BlockchainNetwork.iotNode[88] TrustOf_90_in_85 0.82262688347821
scalar BlockchainNetwork.iotNode[88] TrustOf_90_in_84 0.99730772079887
scalar BlockchainNetwork.iotNode[88] TrustOf_90_in_83 0
scalar BlockchainNetwork.iotNode[88] TrustOf_90_in_82 0.99370210862726
scalar BlockchainNetwork.iotNode[88] "Local Trust to Node 90" 0.88770588923658
scalar BlockchainNetwork.iotNode[88] "Ability of the node" 4.2803302841197
scalar BlockchainNetwork.iotNode[88] FinalBadServicesReceived 0
scalar BlockchainNetwork.iotNode[88] FinalAverageBadServices 4.8857142857143
par BlockchainNetwork.iotNode[89] typename "\"src.IoTNode\""
par BlockchainNetwork.iotNode[89] maliciousNodePercentage 0.3
par BlockchainNetwork.iotNode[89] attackerType 1
scalar BlockchainNetwork.iotNode[89] TrustOf_91_in_90 0.99413582890013
scalar BlockchainNetwork.iotNode[89] TrustOf_91_in_89 0.99349010671847
scalar BlockchainNetwork.iotNode[89] TrustOf_91_in_88 0.99639616742003
scalar BlockchainNetwork.iotNode[89] TrustOf_91_in_87 0.99621374625337
scalar BlockchainNetwork.iotNode[89] TrustOf_91_in_86 0.98911760639024
scalar BlockchainNetwork.iotNode[89] TrustOf_91_in_72 0
scalar BlockchainNetwork.iotNode[89] TrustOf_91_in_85 0.82262688347821
scalar BlockchainNetwork.iotNode[89] TrustOf_91_in_84 0.99800275493576
scalar BlockchainNetwork.iotNode[89] TrustOf_91_in_83 0
scalar BlockchainNetwork.iotNode[89] TrustOf_91_in_82 0.99226544507096
scalar BlockchainNetwork.iotNode[89] "Local Trust to Node 91" 0.60543320435773
scalar BlockchainNetwork.iotNode[89] "Ability of the node" 8.6303312219004
scalar BlockchainNetwork.iotNode[89] FinalBadServicesReceived 0
scalar BlockchainNetwork.iotNode[89] FinalAverageBadServices 4.8857142857143
par BlockchainNetwork.iotNode[90] typename "\"src.IoTNode\""
par BlockchainNetwork.iotNode[90] maliciousNodePercentage 0.3
par BlockchainNetwork.iotNode[90] attackerType 1
scalar BlockchainNetwork.iotNode[90] TrustOf_92_in_18 0
scalar BlockchainNetwork.iotNode[90] TrustOf_92_in_20 0
scalar BlockchainNetwork.iotNode[90] TrustOf_92_in_15 0
scalar BlockchainNetwork.iotNode[90] TrustOf_92_in_4 0.34067092141695
scalar BlockchainNetwork.iotNode[90] TrustOf_92_in_2 0.00080856401370838
scalar BlockchainNetwork.iotNode[90] TrustOf_92_in_82 0
scalar BlockchainNetwork.iotNode[90] TrustOf_92_in_95 0
scalar BlockchainNetwork.iotNode[90] TrustOf_92_in_7 0.79246673271192
scalar BlockchainNetwork.iotNode[90] TrustOf_92_in_94 0
scalar BlockchainNetwork.iotNode[90] TrustOf_92_in_9 0.9532325968134
scalar BlockchainNetwork.iotNode[90] TrustOf_92_in_96 0
scalar BlockchainNetwork.iotNode[90] TrustOf_92_in_5 0
scalar BlockchainNetwork.iotNode[90] TrustOf_92_in_97 0
scalar BlockchainNetwork.iotNode[90] TrustOf_92_in_93 0
scalar BlockchainNetwork.iotNode[90] TrustOf_92_in_6 1
scalar BlockchainNetwork.iotNode[90] TrustOf_92_in_11 0.89076816741429
scalar BlockchainNetwork.iotNode[90] TrustOf_92_in_98 0
scalar BlockchainNetwork.iotNode[90] TrustOf_92_in_99 0
scalar BlockchainNetwork.iotNode[90] TrustOf_92_in_100 0
scalar BlockchainNetwork.iotNode[90] TrustOf_92_in_101 0
scalar BlockchainNetwork.iotNode[90] "Local Trust to Node 92" 0
scalar BlockchainNetwork.iotNode[90] "Ability of the node" 11.104410993428
scalar BlockchainNetwork.iotNode[90] FinalAverageBadServices 4.8857142857143
par BlockchainNetwork.iotNode[91] typename "\"src.IoTNode\""
par BlockchainNetwork.iotNode[91] maliciousNodePercentage 0.3
par BlockchainNetwork.iotNode[91] attackerType 1
scalar BlockchainNetwork.iotNode[91] TrustOf_93_in_101 0
scalar BlockchainNetwork.iotNode[91] TrustOf_93_in_100 0
scalar BlockchainNetwork.iotNode[91] TrustOf_93_in_99 0
scalar BlockchainNetwork.iotNode[91] TrustOf_93_in_98 0
scalar BlockchainNetwork.iotNode[91] TrustOf_93_in_97 0
scalar BlockchainNetwork.iotNode[91] TrustOf_93_in_96 1
scalar BlockchainNetwork.iotNode[91] TrustOf_93_in_95 0
scalar BlockchainNetwork.iotNode[91] TrustOf_93_in_94 1
scalar BlockchainNetwork.iotNode[91] TrustOf_93_in_92 0
scalar BlockchainNetwork.iotNode[91] "Local Trust to Node 93" 0.44444444444444
scalar BlockchainNetwork.iotNode[91] "Ability of the node" 9.0778411583507
scalar BlockchainNetwork.iotNode[91] FinalBadServicesReceived 1
scalar BlockchainNetwork.iotNode[91] FinalAverageBadServices 4.8857142857143
par BlockchainNetwork.iotNode[92] typename "\"src.IoTNode\""
par BlockchainNetwork.iotNode[92] maliciousNodePercentage 0.3
par BlockchainNetwork.iotNode[92] attackerType 1
scalar BlockchainNetwork.iotNode[92] TrustOf_94_in_101 0
scalar BlockchainNetwork.iotNode[92] TrustOf_94_in_100 1
scalar BlockchainNetwork.iotNode[92] TrustOf_94_in_99 0
scalar BlockchainNetwork.iotNode[92] TrustOf_94_in_98 0
scalar BlockchainNetwork.iotNode[92] TrustOf_94_in_97 0
scalar BlockchainNetwork.iotNode[92] TrustOf_94_in_96 1
scalar BlockchainNetwork.iotNode[92] TrustOf_94_in_95 0
scalar BlockchainNetwork.iotNode[92] TrustOf_94_in_93 1
scalar BlockchainNetwork.iotNode[92] TrustOf_94_in_92 0
scalar BlockchainNetwork.iotNode[92] "Local Trust to Node 94" 0.22222222222222
scalar BlockchainNetwork.iotNode[92] "Ability of the node" 8.4491218647007
scalar BlockchainNetwork.iotNode[92] FinalBadServicesReceived 23
scalar BlockchainNetwork.iotNode[92] FinalAverageBadServices 4.8857142857143
par BlockchainNetwork.iotNode[93] typename "\"src.IoTNode\""
par BlockchainNetwork.iotNode[93] maliciousNodePercentage 0.3
par BlockchainNetwork.iotNode[93] attackerType 1
scalar BlockchainNetwork.iotNode[93] TrustOf_95_in_101 0
scalar BlockchainNetwork.iotNode[93] TrustOf_95_in_100 1
scalar BlockchainNetwork.iotNode[93] TrustOf_95_in_99 0
scalar BlockchainNetwork.iotNode[93] TrustOf_95_in_98 0
scalar BlockchainNetwork.iotNode[93] TrustOf_95_in_97 0
scalar BlockchainNetwork.iotNode[93] TrustOf_95_in_96 0
scalar BlockchainNetwork.iotNode[93] TrustOf_95_in_94 1
scalar BlockchainNetwork.iotNode[93] TrustOf_95_in_93 1
scalar BlockchainNetwork.iotNode[93] TrustOf_95_in_92 0
scalar BlockchainNetwork.iotNode[93] "Local Trust to Node 95" 0
scalar BlockchainNetwork.iotNode[93] "Ability of the node" 12.701678583002
scalar BlockchainNetwork.iotNode[93] FinalBadServicesReceived 4
scalar BlockchainNetwork.iotNode[93] FinalAverageBadServices 4.8857142857143
par BlockchainNetwork.iotNode[94] typename "\"src.IoTNode\""
par BlockchainNetwork.iotNode[94] maliciousNodePercentage 0.3
par BlockchainNetwork.iotNode[94] attackerType 1
scalar BlockchainNetwork.iotNode[94] TrustOf_96_in_101 0
scalar BlockchainNetwork.iotNode[94] TrustOf_96_in_100 0
scalar BlockchainNetwork.iotNode[94] TrustOf_96_in_99 1
scalar BlockchainNetwork.iotNode[94] TrustOf_96_in_98 0
scalar BlockchainNetwork.iotNode[94] TrustOf_96_in_97 0
scalar BlockchainNetwork.iotNode[94] TrustOf_96_in_95 0
scalar BlockchainNetwork.iotNode[94] TrustOf_96_in_94 0
scalar BlockchainNetwork.iotNode[94] TrustOf_96_in_93 0
scalar BlockchainNetwork.iotNode[94] TrustOf_96_in_92 0
scalar BlockchainNetwork.iotNode[94] "Local Trust to Node 96" 0.44444444444444
scalar BlockchainNetwork.iotNode[94] "Ability of the node" 4.8249573267585
scalar BlockchainNetwork.iotNode[94] FinalBadServicesReceived 63
scalar BlockchainNetwork.iotNode[94] FinalAverageBadServices 4.8857142857143
par BlockchainNetwork.iotNode[95] typename "\"src.IoTNode\""
par BlockchainNetwork.iotNode[95] maliciousNodePercentage 0.3
par BlockchainNetwork.iotNode[95] attackerType 1
scalar BlockchainNetwork.iotNode[95] TrustOf_97_in_101 0
scalar BlockchainNetwork.iotNode[95] TrustOf_97_in_100 0
scalar BlockchainNetwork.iotNode[95] TrustOf_97_in_99 0
scalar BlockchainNetwork.iotNode[95] TrustOf_97_in_98 0
scalar BlockchainNetwork.iotNode[95] TrustOf_97_in_96 0
scalar BlockchainNetwork.iotNode[95] TrustOf_97_in_95 0
scalar BlockchainNetwork.iotNode[95] TrustOf_97_in_94 0
scalar BlockchainNetwork.iotNode[95] TrustOf_97_in_93 0
scalar BlockchainNetwork.iotNode[95] TrustOf_97_in_92 0
scalar BlockchainNetwork.iotNode[95] "Local Trust to Node 97" 0
scalar BlockchainNetwork.iotNode[95] "Ability of the node" 18.261536225953
scalar BlockchainNetwork.iotNode[95] FinalAverageBadServices 4.8857142857143
par BlockchainNetwork.iotNode[96] typename "\"src.IoTNode\""
par BlockchainNetwork.iotNode[96] maliciousNodePercentage 0.3
par BlockchainNetwork.iotNode[96] attackerType 1
scalar BlockchainNetwork.iotNode[96] TrustOf_98_in_101 0
scalar BlockchainNetwork.iotNode[96] TrustOf_98_in_100 0
scalar BlockchainNetwork.iotNode[96] TrustOf_98_in_99 0
scalar BlockchainNetwork.iotNode[96] TrustOf_98_in_97 0
scalar BlockchainNetwork.iotNode[96] TrustOf_98_in_96 0
scalar BlockchainNetwork.iotNode[96] TrustOf_98_in_95 0
scalar BlockchainNetwork.iotNode[96] TrustOf_98_in_94 0
scalar BlockchainNetwork.iotNode[96] TrustOf_98_in_93 0
scalar BlockchainNetwork.iotNode[96] TrustOf_98_in_92 0
scalar BlockchainNetwork.iotNode[96] "Local Trust to Node 98" 0
scalar BlockchainNetwork.iotNode[96] "Ability of the node" 12.043256600674
scalar BlockchainNetwork.iotNode[96] FinalAverageBadServices 4.8857142857143
par BlockchainNetwork.iotNode[97] typename "\"src.IoTNode\""
par BlockchainNetwork.iotNode[97] maliciousNodePercentage 0.3
par BlockchainNetwork.iotNode[97] attackerType 1
scalar BlockchainNetwork.iotNode[97] TrustOf_99_in_101 0
scalar BlockchainNetwork.iotNode[97] TrustOf_99_in_100 0
scalar BlockchainNetwork.iotNode[97] TrustOf_99_in_98 0
scalar BlockchainNetwork.iotNode[97] TrustOf_99_in_97 0
scalar BlockchainNetwork.iotNode[97] TrustOf_99_in_96 1
scalar BlockchainNetwork.iotNode[97] TrustOf_99_in_95 0
scalar BlockchainNetwork.iotNode[97] TrustOf_99_in_94 0
scalar BlockchainNetwork.iotNode[97] TrustOf_99_in_93 1
scalar BlockchainNetwork.iotNode[97] TrustOf_99_in_92 0
scalar BlockchainNetwork.iotNode[97] "Local Trust to Node 99" 0.22222222222222
scalar BlockchainNetwork.iotNode[97] "Ability of the node" 5.0672598013156
scalar BlockchainNetwork.iotNode[97] FinalBadServicesReceived 23
scalar BlockchainNetwork.iotNode[97] FinalAverageBadServices 4.8857142857143
par BlockchainNetwork.iotNode[98] typename "\"src.IoTNode\""
par BlockchainNetwork.iotNode[98] maliciousNodePercentage 0.3
par BlockchainNetwork.iotNode[98] attackerType 1
scalar BlockchainNetwork.iotNode[98] TrustOf_100_in_101 0
scalar BlockchainNetwork.iotNode[98] TrustOf_100_in_99 1
scalar BlockchainNetwork.iotNode[98] TrustOf_100_in_98 0
scalar BlockchainNetwork.iotNode[98] TrustOf_100_in_97 0
scalar BlockchainNetwork.iotNode[98] TrustOf_100_in_96 1
scalar BlockchainNetwork.iotNode[98] TrustOf_100_in_95 0
scalar BlockchainNetwork.iotNode[98] TrustOf_100_in_94 0
scalar BlockchainNetwork.iotNode[98] TrustOf_100_in_93 1
scalar BlockchainNetwork.iotNode[98] TrustOf_100_in_92 0
scalar BlockchainNetwork.iotNode[98] "Local Trust to Node 100" 0.22222222222222
scalar BlockchainNetwork.iotNode[98] "Ability of the node" 9.9534368480663
scalar BlockchainNetwork.iotNode[98] FinalBadServicesReceived 3
scalar BlockchainNetwork.iotNode[98] FinalAverageBadServices 4.8857142857143
par BlockchainNetwork.iotNode[99] typename "\"src.IoTNode\""
par BlockchainNetwork.iotNode[99] maliciousNodePercentage 0.3
par BlockchainNetwork.iotNode[99] attackerType 1
scalar BlockchainNetwork.iotNode[99] TrustOf_101_in_100 0
scalar BlockchainNetwork.iotNode[99] TrustOf_101_in_99 0
scalar BlockchainNetwork.iotNode[99] TrustOf_101_in_98 0
scalar BlockchainNetwork.iotNode[99] TrustOf_101_in_97 0
scalar BlockchainNetwork.iotNode[99] TrustOf_101_in_96 0
scalar BlockchainNetwork.iotNode[99] TrustOf_101_in_95 0
scalar BlockchainNetwork.iotNode[99] TrustOf_101_in_94 0
scalar BlockchainNetwork.iotNode[99] TrustOf_101_in_93 0
scalar BlockchainNetwork.iotNode[99] TrustOf_101_in_92 0
scalar BlockchainNetwork.iotNode[99] "Local Trust to Node 101" 0
scalar BlockchainNetwork.iotNode[99] "Ability of the node" 15.740370141411
scalar BlockchainNetwork.iotNode[99] FinalAverageBadServices 4.8857142857143
par BlockchainNetwork typename "\"src.BlockchainNetwork\""
par BlockchainNetwork numNodes 100
par BlockchainNetwork maliciousNodePercentage 0.3
par BlockchainNetwork attackerType 1
par BlockchainNetwork clusterCount 10
par BlockchainNetwork clusterSize 10

