version 3
run General-0-20250805-16:12:41-11192
attr configname General
attr datetime 20250805-16:12:41
attr datetimef 20250805-161241
attr experiment General
attr inifile omnetpp.ini
attr iterationvars ""
attr iterationvarsd ""
attr iterationvarsf ""
attr measurement ""
attr network BlockchainNetwork
attr processid 11192
attr repetition 0
attr replication #0
attr resultdir results
attr runnumber 0
attr seedset 42
config network BlockchainNetwork
config *.iotNode*.inoutGateSize 10
config sim-time-limit 2000s
config *.iotNode*.serviceInterval "uniform(1, 5)"
config *.numNodes 100
config **.maliciousNodePercentage 0.3
config seed-set 42

scalar BlockchainNetwork.iotNode[0] AverageBadServicesAt_10 0.11428571428571
scalar BlockchainNetwork.iotNode[1] AverageBadServicesAt_10 0.11428571428571
scalar BlockchainNetwork.iotNode[2] AverageBadServicesAt_10 0.11428571428571
scalar BlockchainNetwork.iotNode[3] AverageBadServicesAt_10 0.11428571428571
scalar BlockchainNetwork.iotNode[4] AverageBadServicesAt_10 0.11428571428571
scalar BlockchainNetwork.iotNode[5] AverageBadServicesAt_10 0.11428571428571
scalar BlockchainNetwork.iotNode[6] AverageBadServicesAt_10 0.11428571428571
scalar BlockchainNetwork.iotNode[7] AverageBadServicesAt_10 0.11428571428571
scalar BlockchainNetwork.iotNode[8] AverageBadServicesAt_10 0.11428571428571
scalar BlockchainNetwork.iotNode[9] AverageBadServicesAt_10 0.11428571428571
scalar BlockchainNetwork.iotNode[10] AverageBadServicesAt_10 0.11428571428571
scalar BlockchainNetwork.iotNode[11] AverageBadServicesAt_10 0.11428571428571
scalar BlockchainNetwork.iotNode[12] AverageBadServicesAt_10 0.11428571428571
scalar BlockchainNetwork.iotNode[13] AverageBadServicesAt_10 0.11428571428571
scalar BlockchainNetwork.iotNode[14] AverageBadServicesAt_10 0.11428571428571
scalar BlockchainNetwork.iotNode[15] AverageBadServicesAt_10 0.11428571428571
scalar BlockchainNetwork.iotNode[16] AverageBadServicesAt_10 0.11428571428571
scalar BlockchainNetwork.iotNode[17] AverageBadServicesAt_10 0.11428571428571
scalar BlockchainNetwork.iotNode[18] AverageBadServicesAt_10 0.11428571428571
scalar BlockchainNetwork.iotNode[19] AverageBadServicesAt_10 0.11428571428571
scalar BlockchainNetwork.iotNode[20] AverageBadServicesAt_10 0.11428571428571
scalar BlockchainNetwork.iotNode[21] AverageBadServicesAt_10 0.11428571428571
scalar BlockchainNetwork.iotNode[22] AverageBadServicesAt_10 0.11428571428571
scalar BlockchainNetwork.iotNode[23] AverageBadServicesAt_10 0.11428571428571
scalar BlockchainNetwork.iotNode[24] AverageBadServicesAt_10 0.11428571428571
scalar BlockchainNetwork.iotNode[25] AverageBadServicesAt_10 0.11428571428571
scalar BlockchainNetwork.iotNode[26] AverageBadServicesAt_10 0.11428571428571
scalar BlockchainNetwork.iotNode[27] AverageBadServicesAt_10 0.11428571428571
scalar BlockchainNetwork.iotNode[28] AverageBadServicesAt_10 0.11428571428571
scalar BlockchainNetwork.iotNode[29] AverageBadServicesAt_10 0.11428571428571
scalar BlockchainNetwork.iotNode[30] AverageBadServicesAt_10 0.11428571428571
scalar BlockchainNetwork.iotNode[31] AverageBadServicesAt_10 0.11428571428571
scalar BlockchainNetwork.iotNode[32] AverageBadServicesAt_10 0.11428571428571
scalar BlockchainNetwork.iotNode[33] AverageBadServicesAt_10 0.11428571428571
scalar BlockchainNetwork.iotNode[34] AverageBadServicesAt_10 0.11428571428571
scalar BlockchainNetwork.iotNode[35] AverageBadServicesAt_10 0.11428571428571
scalar BlockchainNetwork.iotNode[36] AverageBadServicesAt_10 0.11428571428571
scalar BlockchainNetwork.iotNode[37] AverageBadServicesAt_10 0.11428571428571
scalar BlockchainNetwork.iotNode[38] AverageBadServicesAt_10 0.11428571428571
scalar BlockchainNetwork.iotNode[39] AverageBadServicesAt_10 0.11428571428571
scalar BlockchainNetwork.iotNode[40] AverageBadServicesAt_10 0.11428571428571
scalar BlockchainNetwork.iotNode[41] AverageBadServicesAt_10 0.11428571428571
scalar BlockchainNetwork.iotNode[42] AverageBadServicesAt_10 0.11428571428571
scalar BlockchainNetwork.iotNode[43] AverageBadServicesAt_10 0.11428571428571
scalar BlockchainNetwork.iotNode[44] AverageBadServicesAt_10 0.11428571428571
scalar BlockchainNetwork.iotNode[45] AverageBadServicesAt_10 0.11428571428571
scalar BlockchainNetwork.iotNode[46] AverageBadServicesAt_10 0.11428571428571
scalar BlockchainNetwork.iotNode[47] AverageBadServicesAt_10 0.11428571428571
scalar BlockchainNetwork.iotNode[48] AverageBadServicesAt_10 0.11428571428571
scalar BlockchainNetwork.iotNode[49] AverageBadServicesAt_10 0.11428571428571
scalar BlockchainNetwork.iotNode[50] AverageBadServicesAt_10 0.11428571428571
scalar BlockchainNetwork.iotNode[51] AverageBadServicesAt_10 0.11428571428571
scalar BlockchainNetwork.iotNode[52] AverageBadServicesAt_10 0.11428571428571
scalar BlockchainNetwork.iotNode[53] AverageBadServicesAt_10 0.11428571428571
scalar BlockchainNetwork.iotNode[54] AverageBadServicesAt_10 0.11428571428571
scalar BlockchainNetwork.iotNode[55] AverageBadServicesAt_10 0.11428571428571
scalar BlockchainNetwork.iotNode[56] AverageBadServicesAt_10 0.11428571428571
scalar BlockchainNetwork.iotNode[57] AverageBadServicesAt_10 0.11428571428571
scalar BlockchainNetwork.iotNode[58] AverageBadServicesAt_10 0.11428571428571
scalar BlockchainNetwork.iotNode[59] AverageBadServicesAt_10 0.11428571428571
scalar BlockchainNetwork.iotNode[60] AverageBadServicesAt_10 0.11428571428571
scalar BlockchainNetwork.iotNode[61] AverageBadServicesAt_10 0.11428571428571
scalar BlockchainNetwork.iotNode[62] AverageBadServicesAt_10 0.11428571428571
scalar BlockchainNetwork.iotNode[63] AverageBadServicesAt_10 0.11428571428571
scalar BlockchainNetwork.iotNode[64] AverageBadServicesAt_10 0.11428571428571
scalar BlockchainNetwork.iotNode[65] AverageBadServicesAt_10 0.11428571428571
scalar BlockchainNetwork.iotNode[66] AverageBadServicesAt_10 0.11428571428571
scalar BlockchainNetwork.iotNode[67] AverageBadServicesAt_10 0.11428571428571
scalar BlockchainNetwork.iotNode[68] AverageBadServicesAt_10 0.11428571428571
scalar BlockchainNetwork.iotNode[69] AverageBadServicesAt_10 0.11428571428571
scalar BlockchainNetwork.iotNode[70] AverageBadServicesAt_10 0.11428571428571
scalar BlockchainNetwork.iotNode[71] AverageBadServicesAt_10 0.11428571428571
scalar BlockchainNetwork.iotNode[72] AverageBadServicesAt_10 0.11428571428571
scalar BlockchainNetwork.iotNode[73] AverageBadServicesAt_10 0.11428571428571
scalar BlockchainNetwork.iotNode[74] AverageBadServicesAt_10 0.11428571428571
scalar BlockchainNetwork.iotNode[75] AverageBadServicesAt_10 0.11428571428571
scalar BlockchainNetwork.iotNode[76] AverageBadServicesAt_10 0.11428571428571
scalar BlockchainNetwork.iotNode[77] AverageBadServicesAt_10 0.11428571428571
scalar BlockchainNetwork.iotNode[78] AverageBadServicesAt_10 0.11428571428571
scalar BlockchainNetwork.iotNode[79] AverageBadServicesAt_10 0.11428571428571
scalar BlockchainNetwork.iotNode[80] AverageBadServicesAt_10 0.11428571428571
scalar BlockchainNetwork.iotNode[81] AverageBadServicesAt_10 0.11428571428571
scalar BlockchainNetwork.iotNode[82] AverageBadServicesAt_10 0.11428571428571
scalar BlockchainNetwork.iotNode[83] AverageBadServicesAt_10 0.11428571428571
scalar BlockchainNetwork.iotNode[84] AverageBadServicesAt_10 0.11428571428571
scalar BlockchainNetwork.iotNode[85] AverageBadServicesAt_10 0.11428571428571
scalar BlockchainNetwork.iotNode[86] AverageBadServicesAt_10 0.11428571428571
scalar BlockchainNetwork.iotNode[87] AverageBadServicesAt_10 0.11428571428571
scalar BlockchainNetwork.iotNode[88] AverageBadServicesAt_10 0.11428571428571
scalar BlockchainNetwork.iotNode[89] AverageBadServicesAt_10 0.11428571428571
scalar BlockchainNetwork.iotNode[90] AverageBadServicesAt_10 0.11428571428571
scalar BlockchainNetwork.iotNode[91] AverageBadServicesAt_10 0.11428571428571
scalar BlockchainNetwork.iotNode[92] AverageBadServicesAt_10 0.11428571428571
scalar BlockchainNetwork.iotNode[93] AverageBadServicesAt_10 0.11428571428571
scalar BlockchainNetwork.iotNode[94] AverageBadServicesAt_10 0.11428571428571
scalar BlockchainNetwork.iotNode[95] AverageBadServicesAt_10 0.11428571428571
scalar BlockchainNetwork.iotNode[96] AverageBadServicesAt_10 0.11428571428571
scalar BlockchainNetwork.iotNode[97] AverageBadServicesAt_10 0.11428571428571
scalar BlockchainNetwork.iotNode[98] AverageBadServicesAt_10 0.11428571428571
scalar BlockchainNetwork.iotNode[99] AverageBadServicesAt_10 0.11428571428571
scalar BlockchainNetwork.iotNode[0] AverageBadServicesAt_20 0.12857142857143
scalar BlockchainNetwork.iotNode[1] AverageBadServicesAt_20 0.12857142857143
scalar BlockchainNetwork.iotNode[2] AverageBadServicesAt_20 0.12857142857143
scalar BlockchainNetwork.iotNode[3] AverageBadServicesAt_20 0.12857142857143
scalar BlockchainNetwork.iotNode[4] AverageBadServicesAt_20 0.12857142857143
scalar BlockchainNetwork.iotNode[5] AverageBadServicesAt_20 0.12857142857143
scalar BlockchainNetwork.iotNode[6] AverageBadServicesAt_20 0.12857142857143
scalar BlockchainNetwork.iotNode[7] AverageBadServicesAt_20 0.12857142857143
scalar BlockchainNetwork.iotNode[8] AverageBadServicesAt_20 0.12857142857143
scalar BlockchainNetwork.iotNode[9] AverageBadServicesAt_20 0.12857142857143
scalar BlockchainNetwork.iotNode[10] AverageBadServicesAt_20 0.12857142857143
scalar BlockchainNetwork.iotNode[11] AverageBadServicesAt_20 0.12857142857143
scalar BlockchainNetwork.iotNode[12] AverageBadServicesAt_20 0.12857142857143
scalar BlockchainNetwork.iotNode[13] AverageBadServicesAt_20 0.12857142857143
scalar BlockchainNetwork.iotNode[14] AverageBadServicesAt_20 0.12857142857143
scalar BlockchainNetwork.iotNode[15] AverageBadServicesAt_20 0.12857142857143
scalar BlockchainNetwork.iotNode[16] AverageBadServicesAt_20 0.12857142857143
scalar BlockchainNetwork.iotNode[17] AverageBadServicesAt_20 0.12857142857143
scalar BlockchainNetwork.iotNode[18] AverageBadServicesAt_20 0.12857142857143
scalar BlockchainNetwork.iotNode[19] AverageBadServicesAt_20 0.12857142857143
scalar BlockchainNetwork.iotNode[20] AverageBadServicesAt_20 0.12857142857143
scalar BlockchainNetwork.iotNode[21] AverageBadServicesAt_20 0.12857142857143
scalar BlockchainNetwork.iotNode[22] AverageBadServicesAt_20 0.12857142857143
scalar BlockchainNetwork.iotNode[23] AverageBadServicesAt_20 0.12857142857143
scalar BlockchainNetwork.iotNode[24] AverageBadServicesAt_20 0.12857142857143
scalar BlockchainNetwork.iotNode[25] AverageBadServicesAt_20 0.12857142857143
scalar BlockchainNetwork.iotNode[26] AverageBadServicesAt_20 0.12857142857143
scalar BlockchainNetwork.iotNode[27] AverageBadServicesAt_20 0.12857142857143
scalar BlockchainNetwork.iotNode[28] AverageBadServicesAt_20 0.12857142857143
scalar BlockchainNetwork.iotNode[29] AverageBadServicesAt_20 0.12857142857143
scalar BlockchainNetwork.iotNode[30] AverageBadServicesAt_20 0.12857142857143
scalar BlockchainNetwork.iotNode[31] AverageBadServicesAt_20 0.12857142857143
scalar BlockchainNetwork.iotNode[32] AverageBadServicesAt_20 0.12857142857143
scalar BlockchainNetwork.iotNode[33] AverageBadServicesAt_20 0.12857142857143
scalar BlockchainNetwork.iotNode[34] AverageBadServicesAt_20 0.12857142857143
scalar BlockchainNetwork.iotNode[35] AverageBadServicesAt_20 0.12857142857143
scalar BlockchainNetwork.iotNode[36] AverageBadServicesAt_20 0.12857142857143
scalar BlockchainNetwork.iotNode[37] AverageBadServicesAt_20 0.12857142857143
scalar BlockchainNetwork.iotNode[38] AverageBadServicesAt_20 0.12857142857143
scalar BlockchainNetwork.iotNode[39] AverageBadServicesAt_20 0.12857142857143
scalar BlockchainNetwork.iotNode[40] AverageBadServicesAt_20 0.12857142857143
scalar BlockchainNetwork.iotNode[41] AverageBadServicesAt_20 0.12857142857143
scalar BlockchainNetwork.iotNode[42] AverageBadServicesAt_20 0.12857142857143
scalar BlockchainNetwork.iotNode[43] AverageBadServicesAt_20 0.12857142857143
scalar BlockchainNetwork.iotNode[44] AverageBadServicesAt_20 0.12857142857143
scalar BlockchainNetwork.iotNode[45] AverageBadServicesAt_20 0.12857142857143
scalar BlockchainNetwork.iotNode[46] AverageBadServicesAt_20 0.12857142857143
scalar BlockchainNetwork.iotNode[47] AverageBadServicesAt_20 0.12857142857143
scalar BlockchainNetwork.iotNode[48] AverageBadServicesAt_20 0.12857142857143
scalar BlockchainNetwork.iotNode[49] AverageBadServicesAt_20 0.12857142857143
scalar BlockchainNetwork.iotNode[50] AverageBadServicesAt_20 0.12857142857143
scalar BlockchainNetwork.iotNode[51] AverageBadServicesAt_20 0.12857142857143
scalar BlockchainNetwork.iotNode[52] AverageBadServicesAt_20 0.12857142857143
scalar BlockchainNetwork.iotNode[53] AverageBadServicesAt_20 0.12857142857143
scalar BlockchainNetwork.iotNode[54] AverageBadServicesAt_20 0.12857142857143
scalar BlockchainNetwork.iotNode[55] AverageBadServicesAt_20 0.12857142857143
scalar BlockchainNetwork.iotNode[56] AverageBadServicesAt_20 0.12857142857143
scalar BlockchainNetwork.iotNode[57] AverageBadServicesAt_20 0.12857142857143
scalar BlockchainNetwork.iotNode[58] AverageBadServicesAt_20 0.12857142857143
scalar BlockchainNetwork.iotNode[59] AverageBadServicesAt_20 0.12857142857143
scalar BlockchainNetwork.iotNode[60] AverageBadServicesAt_20 0.12857142857143
scalar BlockchainNetwork.iotNode[61] AverageBadServicesAt_20 0.12857142857143
scalar BlockchainNetwork.iotNode[62] AverageBadServicesAt_20 0.12857142857143
scalar BlockchainNetwork.iotNode[63] AverageBadServicesAt_20 0.12857142857143
scalar BlockchainNetwork.iotNode[64] AverageBadServicesAt_20 0.12857142857143
scalar BlockchainNetwork.iotNode[65] AverageBadServicesAt_20 0.12857142857143
scalar BlockchainNetwork.iotNode[66] AverageBadServicesAt_20 0.12857142857143
scalar BlockchainNetwork.iotNode[67] AverageBadServicesAt_20 0.12857142857143
scalar BlockchainNetwork.iotNode[68] AverageBadServicesAt_20 0.12857142857143
scalar BlockchainNetwork.iotNode[69] AverageBadServicesAt_20 0.12857142857143
scalar BlockchainNetwork.iotNode[70] AverageBadServicesAt_20 0.12857142857143
scalar BlockchainNetwork.iotNode[71] AverageBadServicesAt_20 0.12857142857143
scalar BlockchainNetwork.iotNode[72] AverageBadServicesAt_20 0.12857142857143
scalar BlockchainNetwork.iotNode[73] AverageBadServicesAt_20 0.12857142857143
scalar BlockchainNetwork.iotNode[74] AverageBadServicesAt_20 0.12857142857143
scalar BlockchainNetwork.iotNode[75] AverageBadServicesAt_20 0.12857142857143
scalar BlockchainNetwork.iotNode[76] AverageBadServicesAt_20 0.12857142857143
scalar BlockchainNetwork.iotNode[77] AverageBadServicesAt_20 0.12857142857143
scalar BlockchainNetwork.iotNode[78] AverageBadServicesAt_20 0.12857142857143
scalar BlockchainNetwork.iotNode[79] AverageBadServicesAt_20 0.12857142857143
scalar BlockchainNetwork.iotNode[80] AverageBadServicesAt_20 0.12857142857143
scalar BlockchainNetwork.iotNode[81] AverageBadServicesAt_20 0.12857142857143
scalar BlockchainNetwork.iotNode[82] AverageBadServicesAt_20 0.12857142857143
scalar BlockchainNetwork.iotNode[83] AverageBadServicesAt_20 0.12857142857143
scalar BlockchainNetwork.iotNode[84] AverageBadServicesAt_20 0.12857142857143
scalar BlockchainNetwork.iotNode[85] AverageBadServicesAt_20 0.12857142857143
scalar BlockchainNetwork.iotNode[86] AverageBadServicesAt_20 0.12857142857143
scalar BlockchainNetwork.iotNode[87] AverageBadServicesAt_20 0.12857142857143
scalar BlockchainNetwork.iotNode[88] AverageBadServicesAt_20 0.12857142857143
scalar BlockchainNetwork.iotNode[89] AverageBadServicesAt_20 0.12857142857143
scalar BlockchainNetwork.iotNode[90] AverageBadServicesAt_20 0.12857142857143
scalar BlockchainNetwork.iotNode[91] AverageBadServicesAt_20 0.12857142857143
scalar BlockchainNetwork.iotNode[92] AverageBadServicesAt_20 0.12857142857143
scalar BlockchainNetwork.iotNode[93] AverageBadServicesAt_20 0.12857142857143
scalar BlockchainNetwork.iotNode[94] AverageBadServicesAt_20 0.12857142857143
scalar BlockchainNetwork.iotNode[95] AverageBadServicesAt_20 0.12857142857143
scalar BlockchainNetwork.iotNode[96] AverageBadServicesAt_20 0.12857142857143
scalar BlockchainNetwork.iotNode[97] AverageBadServicesAt_20 0.12857142857143
scalar BlockchainNetwork.iotNode[98] AverageBadServicesAt_20 0.12857142857143
scalar BlockchainNetwork.iotNode[99] AverageBadServicesAt_20 0.12857142857143
scalar BlockchainNetwork.iotNode[0] AverageBadServicesAt_30 0.14285714285714
scalar BlockchainNetwork.iotNode[1] AverageBadServicesAt_30 0.14285714285714
scalar BlockchainNetwork.iotNode[2] AverageBadServicesAt_30 0.14285714285714
scalar BlockchainNetwork.iotNode[3] AverageBadServicesAt_30 0.14285714285714
scalar BlockchainNetwork.iotNode[4] AverageBadServicesAt_30 0.14285714285714
scalar BlockchainNetwork.iotNode[5] AverageBadServicesAt_30 0.14285714285714
scalar BlockchainNetwork.iotNode[6] AverageBadServicesAt_30 0.14285714285714
scalar BlockchainNetwork.iotNode[7] AverageBadServicesAt_30 0.14285714285714
scalar BlockchainNetwork.iotNode[8] AverageBadServicesAt_30 0.14285714285714
scalar BlockchainNetwork.iotNode[9] AverageBadServicesAt_30 0.14285714285714
scalar BlockchainNetwork.iotNode[10] AverageBadServicesAt_30 0.14285714285714
scalar BlockchainNetwork.iotNode[11] AverageBadServicesAt_30 0.14285714285714
scalar BlockchainNetwork.iotNode[12] AverageBadServicesAt_30 0.14285714285714
scalar BlockchainNetwork.iotNode[13] AverageBadServicesAt_30 0.14285714285714
scalar BlockchainNetwork.iotNode[14] AverageBadServicesAt_30 0.14285714285714
scalar BlockchainNetwork.iotNode[15] AverageBadServicesAt_30 0.14285714285714
scalar BlockchainNetwork.iotNode[16] AverageBadServicesAt_30 0.14285714285714
scalar BlockchainNetwork.iotNode[17] AverageBadServicesAt_30 0.14285714285714
scalar BlockchainNetwork.iotNode[18] AverageBadServicesAt_30 0.14285714285714
scalar BlockchainNetwork.iotNode[19] AverageBadServicesAt_30 0.14285714285714
scalar BlockchainNetwork.iotNode[20] AverageBadServicesAt_30 0.14285714285714
scalar BlockchainNetwork.iotNode[21] AverageBadServicesAt_30 0.14285714285714
scalar BlockchainNetwork.iotNode[22] AverageBadServicesAt_30 0.14285714285714
scalar BlockchainNetwork.iotNode[23] AverageBadServicesAt_30 0.14285714285714
scalar BlockchainNetwork.iotNode[24] AverageBadServicesAt_30 0.14285714285714
scalar BlockchainNetwork.iotNode[25] AverageBadServicesAt_30 0.14285714285714
scalar BlockchainNetwork.iotNode[26] AverageBadServicesAt_30 0.14285714285714
scalar BlockchainNetwork.iotNode[27] AverageBadServicesAt_30 0.14285714285714
scalar BlockchainNetwork.iotNode[28] AverageBadServicesAt_30 0.14285714285714
scalar BlockchainNetwork.iotNode[29] AverageBadServicesAt_30 0.14285714285714
scalar BlockchainNetwork.iotNode[30] AverageBadServicesAt_30 0.14285714285714
scalar BlockchainNetwork.iotNode[31] AverageBadServicesAt_30 0.14285714285714
scalar BlockchainNetwork.iotNode[32] AverageBadServicesAt_30 0.14285714285714
scalar BlockchainNetwork.iotNode[33] AverageBadServicesAt_30 0.14285714285714
scalar BlockchainNetwork.iotNode[34] AverageBadServicesAt_30 0.14285714285714
scalar BlockchainNetwork.iotNode[35] AverageBadServicesAt_30 0.14285714285714
scalar BlockchainNetwork.iotNode[36] AverageBadServicesAt_30 0.14285714285714
scalar BlockchainNetwork.iotNode[37] AverageBadServicesAt_30 0.14285714285714
scalar BlockchainNetwork.iotNode[38] AverageBadServicesAt_30 0.14285714285714
scalar BlockchainNetwork.iotNode[39] AverageBadServicesAt_30 0.14285714285714
scalar BlockchainNetwork.iotNode[40] AverageBadServicesAt_30 0.14285714285714
scalar BlockchainNetwork.iotNode[41] AverageBadServicesAt_30 0.14285714285714
scalar BlockchainNetwork.iotNode[42] AverageBadServicesAt_30 0.14285714285714
scalar BlockchainNetwork.iotNode[43] AverageBadServicesAt_30 0.14285714285714
scalar BlockchainNetwork.iotNode[44] AverageBadServicesAt_30 0.14285714285714
scalar BlockchainNetwork.iotNode[45] AverageBadServicesAt_30 0.14285714285714
scalar BlockchainNetwork.iotNode[46] AverageBadServicesAt_30 0.14285714285714
scalar BlockchainNetwork.iotNode[47] AverageBadServicesAt_30 0.14285714285714
scalar BlockchainNetwork.iotNode[48] AverageBadServicesAt_30 0.14285714285714
scalar BlockchainNetwork.iotNode[49] AverageBadServicesAt_30 0.14285714285714
scalar BlockchainNetwork.iotNode[50] AverageBadServicesAt_30 0.14285714285714
scalar BlockchainNetwork.iotNode[51] AverageBadServicesAt_30 0.14285714285714
scalar BlockchainNetwork.iotNode[52] AverageBadServicesAt_30 0.14285714285714
scalar BlockchainNetwork.iotNode[53] AverageBadServicesAt_30 0.14285714285714
scalar BlockchainNetwork.iotNode[54] AverageBadServicesAt_30 0.14285714285714
scalar BlockchainNetwork.iotNode[55] AverageBadServicesAt_30 0.14285714285714
scalar BlockchainNetwork.iotNode[56] AverageBadServicesAt_30 0.14285714285714
scalar BlockchainNetwork.iotNode[57] AverageBadServicesAt_30 0.14285714285714
scalar BlockchainNetwork.iotNode[58] AverageBadServicesAt_30 0.14285714285714
scalar BlockchainNetwork.iotNode[59] AverageBadServicesAt_30 0.14285714285714
scalar BlockchainNetwork.iotNode[60] AverageBadServicesAt_30 0.14285714285714
scalar BlockchainNetwork.iotNode[61] AverageBadServicesAt_30 0.14285714285714
scalar BlockchainNetwork.iotNode[62] AverageBadServicesAt_30 0.14285714285714
scalar BlockchainNetwork.iotNode[63] AverageBadServicesAt_30 0.14285714285714
scalar BlockchainNetwork.iotNode[64] AverageBadServicesAt_30 0.14285714285714
scalar BlockchainNetwork.iotNode[65] AverageBadServicesAt_30 0.14285714285714
scalar BlockchainNetwork.iotNode[66] AverageBadServicesAt_30 0.14285714285714
scalar BlockchainNetwork.iotNode[67] AverageBadServicesAt_30 0.14285714285714
scalar BlockchainNetwork.iotNode[68] AverageBadServicesAt_30 0.14285714285714
scalar BlockchainNetwork.iotNode[69] AverageBadServicesAt_30 0.14285714285714
scalar BlockchainNetwork.iotNode[70] AverageBadServicesAt_30 0.14285714285714
scalar BlockchainNetwork.iotNode[71] AverageBadServicesAt_30 0.14285714285714
scalar BlockchainNetwork.iotNode[72] AverageBadServicesAt_30 0.14285714285714
scalar BlockchainNetwork.iotNode[73] AverageBadServicesAt_30 0.14285714285714
scalar BlockchainNetwork.iotNode[74] AverageBadServicesAt_30 0.14285714285714
scalar BlockchainNetwork.iotNode[75] AverageBadServicesAt_30 0.14285714285714
scalar BlockchainNetwork.iotNode[76] AverageBadServicesAt_30 0.14285714285714
scalar BlockchainNetwork.iotNode[77] AverageBadServicesAt_30 0.14285714285714
scalar BlockchainNetwork.iotNode[78] AverageBadServicesAt_30 0.14285714285714
scalar BlockchainNetwork.iotNode[79] AverageBadServicesAt_30 0.14285714285714
scalar BlockchainNetwork.iotNode[80] AverageBadServicesAt_30 0.14285714285714
scalar BlockchainNetwork.iotNode[81] AverageBadServicesAt_30 0.14285714285714
scalar BlockchainNetwork.iotNode[82] AverageBadServicesAt_30 0.14285714285714
scalar BlockchainNetwork.iotNode[83] AverageBadServicesAt_30 0.14285714285714
scalar BlockchainNetwork.iotNode[84] AverageBadServicesAt_30 0.14285714285714
scalar BlockchainNetwork.iotNode[85] AverageBadServicesAt_30 0.14285714285714
scalar BlockchainNetwork.iotNode[86] AverageBadServicesAt_30 0.14285714285714
scalar BlockchainNetwork.iotNode[87] AverageBadServicesAt_30 0.14285714285714
scalar BlockchainNetwork.iotNode[88] AverageBadServicesAt_30 0.14285714285714
scalar BlockchainNetwork.iotNode[89] AverageBadServicesAt_30 0.14285714285714
scalar BlockchainNetwork.iotNode[90] AverageBadServicesAt_30 0.14285714285714
scalar BlockchainNetwork.iotNode[91] AverageBadServicesAt_30 0.14285714285714
scalar BlockchainNetwork.iotNode[92] AverageBadServicesAt_30 0.14285714285714
scalar BlockchainNetwork.iotNode[93] AverageBadServicesAt_30 0.14285714285714
scalar BlockchainNetwork.iotNode[94] AverageBadServicesAt_30 0.14285714285714
scalar BlockchainNetwork.iotNode[95] AverageBadServicesAt_30 0.14285714285714
scalar BlockchainNetwork.iotNode[96] AverageBadServicesAt_30 0.14285714285714
scalar BlockchainNetwork.iotNode[97] AverageBadServicesAt_30 0.14285714285714
scalar BlockchainNetwork.iotNode[98] AverageBadServicesAt_30 0.14285714285714
scalar BlockchainNetwork.iotNode[99] AverageBadServicesAt_30 0.14285714285714
scalar BlockchainNetwork.iotNode[0] AverageBadServicesAt_40 0.14285714285714
scalar BlockchainNetwork.iotNode[1] AverageBadServicesAt_40 0.14285714285714
scalar BlockchainNetwork.iotNode[2] AverageBadServicesAt_40 0.14285714285714
scalar BlockchainNetwork.iotNode[3] AverageBadServicesAt_40 0.14285714285714
scalar BlockchainNetwork.iotNode[4] AverageBadServicesAt_40 0.14285714285714
scalar BlockchainNetwork.iotNode[5] AverageBadServicesAt_40 0.14285714285714
scalar BlockchainNetwork.iotNode[6] AverageBadServicesAt_40 0.14285714285714
scalar BlockchainNetwork.iotNode[7] AverageBadServicesAt_40 0.14285714285714
scalar BlockchainNetwork.iotNode[8] AverageBadServicesAt_40 0.14285714285714
scalar BlockchainNetwork.iotNode[9] AverageBadServicesAt_40 0.14285714285714
scalar BlockchainNetwork.iotNode[10] AverageBadServicesAt_40 0.14285714285714
scalar BlockchainNetwork.iotNode[11] AverageBadServicesAt_40 0.14285714285714
scalar BlockchainNetwork.iotNode[12] AverageBadServicesAt_40 0.14285714285714
scalar BlockchainNetwork.iotNode[13] AverageBadServicesAt_40 0.14285714285714
scalar BlockchainNetwork.iotNode[14] AverageBadServicesAt_40 0.14285714285714
scalar BlockchainNetwork.iotNode[15] AverageBadServicesAt_40 0.14285714285714
scalar BlockchainNetwork.iotNode[16] AverageBadServicesAt_40 0.14285714285714
scalar BlockchainNetwork.iotNode[17] AverageBadServicesAt_40 0.14285714285714
scalar BlockchainNetwork.iotNode[18] AverageBadServicesAt_40 0.14285714285714
scalar BlockchainNetwork.iotNode[19] AverageBadServicesAt_40 0.14285714285714
scalar BlockchainNetwork.iotNode[20] AverageBadServicesAt_40 0.14285714285714
scalar BlockchainNetwork.iotNode[21] AverageBadServicesAt_40 0.14285714285714
scalar BlockchainNetwork.iotNode[22] AverageBadServicesAt_40 0.14285714285714
scalar BlockchainNetwork.iotNode[23] AverageBadServicesAt_40 0.14285714285714
scalar BlockchainNetwork.iotNode[24] AverageBadServicesAt_40 0.14285714285714
scalar BlockchainNetwork.iotNode[25] AverageBadServicesAt_40 0.14285714285714
scalar BlockchainNetwork.iotNode[26] AverageBadServicesAt_40 0.14285714285714
scalar BlockchainNetwork.iotNode[27] AverageBadServicesAt_40 0.14285714285714
scalar BlockchainNetwork.iotNode[28] AverageBadServicesAt_40 0.14285714285714
scalar BlockchainNetwork.iotNode[29] AverageBadServicesAt_40 0.14285714285714
scalar BlockchainNetwork.iotNode[30] AverageBadServicesAt_40 0.14285714285714
scalar BlockchainNetwork.iotNode[31] AverageBadServicesAt_40 0.14285714285714
scalar BlockchainNetwork.iotNode[32] AverageBadServicesAt_40 0.14285714285714
scalar BlockchainNetwork.iotNode[33] AverageBadServicesAt_40 0.14285714285714
scalar BlockchainNetwork.iotNode[34] AverageBadServicesAt_40 0.14285714285714
scalar BlockchainNetwork.iotNode[35] AverageBadServicesAt_40 0.14285714285714
scalar BlockchainNetwork.iotNode[36] AverageBadServicesAt_40 0.14285714285714
scalar BlockchainNetwork.iotNode[37] AverageBadServicesAt_40 0.14285714285714
scalar BlockchainNetwork.iotNode[38] AverageBadServicesAt_40 0.14285714285714
scalar BlockchainNetwork.iotNode[39] AverageBadServicesAt_40 0.14285714285714
scalar BlockchainNetwork.iotNode[40] AverageBadServicesAt_40 0.14285714285714
scalar BlockchainNetwork.iotNode[41] AverageBadServicesAt_40 0.14285714285714
scalar BlockchainNetwork.iotNode[42] AverageBadServicesAt_40 0.14285714285714
scalar BlockchainNetwork.iotNode[43] AverageBadServicesAt_40 0.14285714285714
scalar BlockchainNetwork.iotNode[44] AverageBadServicesAt_40 0.14285714285714
scalar BlockchainNetwork.iotNode[45] AverageBadServicesAt_40 0.14285714285714
scalar BlockchainNetwork.iotNode[46] AverageBadServicesAt_40 0.14285714285714
scalar BlockchainNetwork.iotNode[47] AverageBadServicesAt_40 0.14285714285714
scalar BlockchainNetwork.iotNode[48] AverageBadServicesAt_40 0.14285714285714
scalar BlockchainNetwork.iotNode[49] AverageBadServicesAt_40 0.14285714285714
scalar BlockchainNetwork.iotNode[50] AverageBadServicesAt_40 0.14285714285714
scalar BlockchainNetwork.iotNode[51] AverageBadServicesAt_40 0.14285714285714
scalar BlockchainNetwork.iotNode[52] AverageBadServicesAt_40 0.14285714285714
scalar BlockchainNetwork.iotNode[53] AverageBadServicesAt_40 0.14285714285714
scalar BlockchainNetwork.iotNode[54] AverageBadServicesAt_40 0.14285714285714
scalar BlockchainNetwork.iotNode[55] AverageBadServicesAt_40 0.14285714285714
scalar BlockchainNetwork.iotNode[56] AverageBadServicesAt_40 0.14285714285714
scalar BlockchainNetwork.iotNode[57] AverageBadServicesAt_40 0.14285714285714
scalar BlockchainNetwork.iotNode[58] AverageBadServicesAt_40 0.14285714285714
scalar BlockchainNetwork.iotNode[59] AverageBadServicesAt_40 0.14285714285714
scalar BlockchainNetwork.iotNode[60] AverageBadServicesAt_40 0.14285714285714
scalar BlockchainNetwork.iotNode[61] AverageBadServicesAt_40 0.14285714285714
scalar BlockchainNetwork.iotNode[62] AverageBadServicesAt_40 0.14285714285714
scalar BlockchainNetwork.iotNode[63] AverageBadServicesAt_40 0.14285714285714
scalar BlockchainNetwork.iotNode[64] AverageBadServicesAt_40 0.14285714285714
scalar BlockchainNetwork.iotNode[65] AverageBadServicesAt_40 0.14285714285714
scalar BlockchainNetwork.iotNode[66] AverageBadServicesAt_40 0.14285714285714
scalar BlockchainNetwork.iotNode[67] AverageBadServicesAt_40 0.14285714285714
scalar BlockchainNetwork.iotNode[68] AverageBadServicesAt_40 0.14285714285714
scalar BlockchainNetwork.iotNode[69] AverageBadServicesAt_40 0.14285714285714
scalar BlockchainNetwork.iotNode[70] AverageBadServicesAt_40 0.14285714285714
scalar BlockchainNetwork.iotNode[71] AverageBadServicesAt_40 0.14285714285714
scalar BlockchainNetwork.iotNode[72] AverageBadServicesAt_40 0.14285714285714
scalar BlockchainNetwork.iotNode[73] AverageBadServicesAt_40 0.14285714285714
scalar BlockchainNetwork.iotNode[74] AverageBadServicesAt_40 0.14285714285714
scalar BlockchainNetwork.iotNode[75] AverageBadServicesAt_40 0.14285714285714
scalar BlockchainNetwork.iotNode[76] AverageBadServicesAt_40 0.14285714285714
scalar BlockchainNetwork.iotNode[77] AverageBadServicesAt_40 0.14285714285714
scalar BlockchainNetwork.iotNode[78] AverageBadServicesAt_40 0.14285714285714
scalar BlockchainNetwork.iotNode[79] AverageBadServicesAt_40 0.14285714285714
scalar BlockchainNetwork.iotNode[80] AverageBadServicesAt_40 0.14285714285714
scalar BlockchainNetwork.iotNode[81] AverageBadServicesAt_40 0.14285714285714
scalar BlockchainNetwork.iotNode[82] AverageBadServicesAt_40 0.14285714285714
scalar BlockchainNetwork.iotNode[83] AverageBadServicesAt_40 0.14285714285714
scalar BlockchainNetwork.iotNode[84] AverageBadServicesAt_40 0.14285714285714
scalar BlockchainNetwork.iotNode[85] AverageBadServicesAt_40 0.14285714285714
scalar BlockchainNetwork.iotNode[86] AverageBadServicesAt_40 0.14285714285714
scalar BlockchainNetwork.iotNode[87] AverageBadServicesAt_40 0.14285714285714
scalar BlockchainNetwork.iotNode[88] AverageBadServicesAt_40 0.14285714285714
scalar BlockchainNetwork.iotNode[89] AverageBadServicesAt_40 0.14285714285714
scalar BlockchainNetwork.iotNode[90] AverageBadServicesAt_40 0.14285714285714
scalar BlockchainNetwork.iotNode[91] AverageBadServicesAt_40 0.14285714285714
scalar BlockchainNetwork.iotNode[92] AverageBadServicesAt_40 0.14285714285714
scalar BlockchainNetwork.iotNode[93] AverageBadServicesAt_40 0.14285714285714
scalar BlockchainNetwork.iotNode[94] AverageBadServicesAt_40 0.14285714285714
scalar BlockchainNetwork.iotNode[95] AverageBadServicesAt_40 0.14285714285714
scalar BlockchainNetwork.iotNode[96] AverageBadServicesAt_40 0.14285714285714
scalar BlockchainNetwork.iotNode[97] AverageBadServicesAt_40 0.14285714285714
scalar BlockchainNetwork.iotNode[98] AverageBadServicesAt_40 0.14285714285714
scalar BlockchainNetwork.iotNode[99] AverageBadServicesAt_40 0.14285714285714
scalar BlockchainNetwork.iotNode[0] AverageBadServicesAt_50 0.14285714285714
scalar BlockchainNetwork.iotNode[1] AverageBadServicesAt_50 0.14285714285714
scalar BlockchainNetwork.iotNode[2] AverageBadServicesAt_50 0.14285714285714
scalar BlockchainNetwork.iotNode[3] AverageBadServicesAt_50 0.14285714285714
scalar BlockchainNetwork.iotNode[4] AverageBadServicesAt_50 0.14285714285714
scalar BlockchainNetwork.iotNode[5] AverageBadServicesAt_50 0.14285714285714
scalar BlockchainNetwork.iotNode[6] AverageBadServicesAt_50 0.14285714285714
scalar BlockchainNetwork.iotNode[7] AverageBadServicesAt_50 0.14285714285714
scalar BlockchainNetwork.iotNode[8] AverageBadServicesAt_50 0.14285714285714
scalar BlockchainNetwork.iotNode[9] AverageBadServicesAt_50 0.14285714285714
scalar BlockchainNetwork.iotNode[10] AverageBadServicesAt_50 0.14285714285714
scalar BlockchainNetwork.iotNode[11] AverageBadServicesAt_50 0.14285714285714
scalar BlockchainNetwork.iotNode[12] AverageBadServicesAt_50 0.14285714285714
scalar BlockchainNetwork.iotNode[13] AverageBadServicesAt_50 0.14285714285714
scalar BlockchainNetwork.iotNode[14] AverageBadServicesAt_50 0.14285714285714
scalar BlockchainNetwork.iotNode[15] AverageBadServicesAt_50 0.14285714285714
scalar BlockchainNetwork.iotNode[16] AverageBadServicesAt_50 0.14285714285714
scalar BlockchainNetwork.iotNode[17] AverageBadServicesAt_50 0.14285714285714
scalar BlockchainNetwork.iotNode[18] AverageBadServicesAt_50 0.14285714285714
scalar BlockchainNetwork.iotNode[19] AverageBadServicesAt_50 0.14285714285714
scalar BlockchainNetwork.iotNode[20] AverageBadServicesAt_50 0.14285714285714
scalar BlockchainNetwork.iotNode[21] AverageBadServicesAt_50 0.14285714285714
scalar BlockchainNetwork.iotNode[22] AverageBadServicesAt_50 0.14285714285714
scalar BlockchainNetwork.iotNode[23] AverageBadServicesAt_50 0.14285714285714
scalar BlockchainNetwork.iotNode[24] AverageBadServicesAt_50 0.14285714285714
scalar BlockchainNetwork.iotNode[25] AverageBadServicesAt_50 0.14285714285714
scalar BlockchainNetwork.iotNode[26] AverageBadServicesAt_50 0.14285714285714
scalar BlockchainNetwork.iotNode[27] AverageBadServicesAt_50 0.14285714285714
scalar BlockchainNetwork.iotNode[28] AverageBadServicesAt_50 0.14285714285714
scalar BlockchainNetwork.iotNode[29] AverageBadServicesAt_50 0.14285714285714
scalar BlockchainNetwork.iotNode[30] AverageBadServicesAt_50 0.14285714285714
scalar BlockchainNetwork.iotNode[31] AverageBadServicesAt_50 0.14285714285714
scalar BlockchainNetwork.iotNode[32] AverageBadServicesAt_50 0.14285714285714
scalar BlockchainNetwork.iotNode[33] AverageBadServicesAt_50 0.14285714285714
scalar BlockchainNetwork.iotNode[34] AverageBadServicesAt_50 0.14285714285714
scalar BlockchainNetwork.iotNode[35] AverageBadServicesAt_50 0.14285714285714
scalar BlockchainNetwork.iotNode[36] AverageBadServicesAt_50 0.14285714285714
scalar BlockchainNetwork.iotNode[37] AverageBadServicesAt_50 0.14285714285714
scalar BlockchainNetwork.iotNode[38] AverageBadServicesAt_50 0.14285714285714
scalar BlockchainNetwork.iotNode[39] AverageBadServicesAt_50 0.14285714285714
scalar BlockchainNetwork.iotNode[40] AverageBadServicesAt_50 0.14285714285714
scalar BlockchainNetwork.iotNode[41] AverageBadServicesAt_50 0.14285714285714
scalar BlockchainNetwork.iotNode[42] AverageBadServicesAt_50 0.14285714285714
scalar BlockchainNetwork.iotNode[43] AverageBadServicesAt_50 0.14285714285714
scalar BlockchainNetwork.iotNode[44] AverageBadServicesAt_50 0.14285714285714
scalar BlockchainNetwork.iotNode[45] AverageBadServicesAt_50 0.14285714285714
scalar BlockchainNetwork.iotNode[46] AverageBadServicesAt_50 0.14285714285714
scalar BlockchainNetwork.iotNode[47] AverageBadServicesAt_50 0.14285714285714
scalar BlockchainNetwork.iotNode[48] AverageBadServicesAt_50 0.14285714285714
scalar BlockchainNetwork.iotNode[49] AverageBadServicesAt_50 0.14285714285714
scalar BlockchainNetwork.iotNode[50] AverageBadServicesAt_50 0.14285714285714
scalar BlockchainNetwork.iotNode[51] AverageBadServicesAt_50 0.14285714285714
scalar BlockchainNetwork.iotNode[52] AverageBadServicesAt_50 0.14285714285714
scalar BlockchainNetwork.iotNode[53] AverageBadServicesAt_50 0.14285714285714
scalar BlockchainNetwork.iotNode[54] AverageBadServicesAt_50 0.14285714285714
scalar BlockchainNetwork.iotNode[55] AverageBadServicesAt_50 0.14285714285714
scalar BlockchainNetwork.iotNode[56] AverageBadServicesAt_50 0.14285714285714
scalar BlockchainNetwork.iotNode[57] AverageBadServicesAt_50 0.14285714285714
scalar BlockchainNetwork.iotNode[58] AverageBadServicesAt_50 0.14285714285714
scalar BlockchainNetwork.iotNode[59] AverageBadServicesAt_50 0.14285714285714
scalar BlockchainNetwork.iotNode[60] AverageBadServicesAt_50 0.14285714285714
scalar BlockchainNetwork.iotNode[61] AverageBadServicesAt_50 0.14285714285714
scalar BlockchainNetwork.iotNode[62] AverageBadServicesAt_50 0.14285714285714
scalar BlockchainNetwork.iotNode[63] AverageBadServicesAt_50 0.14285714285714
scalar BlockchainNetwork.iotNode[64] AverageBadServicesAt_50 0.14285714285714
scalar BlockchainNetwork.iotNode[65] AverageBadServicesAt_50 0.14285714285714
scalar BlockchainNetwork.iotNode[66] AverageBadServicesAt_50 0.14285714285714
scalar BlockchainNetwork.iotNode[67] AverageBadServicesAt_50 0.14285714285714
scalar BlockchainNetwork.iotNode[68] AverageBadServicesAt_50 0.14285714285714
scalar BlockchainNetwork.iotNode[69] AverageBadServicesAt_50 0.14285714285714
scalar BlockchainNetwork.iotNode[70] AverageBadServicesAt_50 0.14285714285714
scalar BlockchainNetwork.iotNode[71] AverageBadServicesAt_50 0.14285714285714
scalar BlockchainNetwork.iotNode[72] AverageBadServicesAt_50 0.14285714285714
scalar BlockchainNetwork.iotNode[73] AverageBadServicesAt_50 0.14285714285714
scalar BlockchainNetwork.iotNode[74] AverageBadServicesAt_50 0.14285714285714
scalar BlockchainNetwork.iotNode[75] AverageBadServicesAt_50 0.14285714285714
scalar BlockchainNetwork.iotNode[76] AverageBadServicesAt_50 0.14285714285714
scalar BlockchainNetwork.iotNode[77] AverageBadServicesAt_50 0.14285714285714
scalar BlockchainNetwork.iotNode[78] AverageBadServicesAt_50 0.14285714285714
scalar BlockchainNetwork.iotNode[79] AverageBadServicesAt_50 0.14285714285714
scalar BlockchainNetwork.iotNode[80] AverageBadServicesAt_50 0.14285714285714
scalar BlockchainNetwork.iotNode[81] AverageBadServicesAt_50 0.14285714285714
scalar BlockchainNetwork.iotNode[82] AverageBadServicesAt_50 0.14285714285714
scalar BlockchainNetwork.iotNode[83] AverageBadServicesAt_50 0.14285714285714
scalar BlockchainNetwork.iotNode[84] AverageBadServicesAt_50 0.14285714285714
scalar BlockchainNetwork.iotNode[85] AverageBadServicesAt_50 0.14285714285714
scalar BlockchainNetwork.iotNode[86] AverageBadServicesAt_50 0.14285714285714
scalar BlockchainNetwork.iotNode[87] AverageBadServicesAt_50 0.14285714285714
scalar BlockchainNetwork.iotNode[88] AverageBadServicesAt_50 0.14285714285714
scalar BlockchainNetwork.iotNode[89] AverageBadServicesAt_50 0.14285714285714
scalar BlockchainNetwork.iotNode[90] AverageBadServicesAt_50 0.14285714285714
scalar BlockchainNetwork.iotNode[91] AverageBadServicesAt_50 0.14285714285714
scalar BlockchainNetwork.iotNode[92] AverageBadServicesAt_50 0.14285714285714
scalar BlockchainNetwork.iotNode[93] AverageBadServicesAt_50 0.14285714285714
scalar BlockchainNetwork.iotNode[94] AverageBadServicesAt_50 0.14285714285714
scalar BlockchainNetwork.iotNode[95] AverageBadServicesAt_50 0.14285714285714
scalar BlockchainNetwork.iotNode[96] AverageBadServicesAt_50 0.14285714285714
scalar BlockchainNetwork.iotNode[97] AverageBadServicesAt_50 0.14285714285714
scalar BlockchainNetwork.iotNode[98] AverageBadServicesAt_50 0.14285714285714
scalar BlockchainNetwork.iotNode[99] AverageBadServicesAt_50 0.14285714285714
scalar BlockchainNetwork.iotNode[0] AverageBadServicesAt_60 0.14285714285714
scalar BlockchainNetwork.iotNode[1] AverageBadServicesAt_60 0.14285714285714
scalar BlockchainNetwork.iotNode[2] AverageBadServicesAt_60 0.14285714285714
scalar BlockchainNetwork.iotNode[3] AverageBadServicesAt_60 0.14285714285714
scalar BlockchainNetwork.iotNode[4] AverageBadServicesAt_60 0.14285714285714
scalar BlockchainNetwork.iotNode[5] AverageBadServicesAt_60 0.14285714285714
scalar BlockchainNetwork.iotNode[6] AverageBadServicesAt_60 0.14285714285714
scalar BlockchainNetwork.iotNode[7] AverageBadServicesAt_60 0.14285714285714
scalar BlockchainNetwork.iotNode[8] AverageBadServicesAt_60 0.14285714285714
scalar BlockchainNetwork.iotNode[9] AverageBadServicesAt_60 0.14285714285714
scalar BlockchainNetwork.iotNode[10] AverageBadServicesAt_60 0.14285714285714
scalar BlockchainNetwork.iotNode[11] AverageBadServicesAt_60 0.14285714285714
scalar BlockchainNetwork.iotNode[12] AverageBadServicesAt_60 0.14285714285714
scalar BlockchainNetwork.iotNode[13] AverageBadServicesAt_60 0.14285714285714
scalar BlockchainNetwork.iotNode[14] AverageBadServicesAt_60 0.14285714285714
scalar BlockchainNetwork.iotNode[15] AverageBadServicesAt_60 0.14285714285714
scalar BlockchainNetwork.iotNode[16] AverageBadServicesAt_60 0.14285714285714
scalar BlockchainNetwork.iotNode[17] AverageBadServicesAt_60 0.14285714285714
scalar BlockchainNetwork.iotNode[18] AverageBadServicesAt_60 0.14285714285714
scalar BlockchainNetwork.iotNode[19] AverageBadServicesAt_60 0.14285714285714
scalar BlockchainNetwork.iotNode[20] AverageBadServicesAt_60 0.14285714285714
scalar BlockchainNetwork.iotNode[21] AverageBadServicesAt_60 0.14285714285714
scalar BlockchainNetwork.iotNode[22] AverageBadServicesAt_60 0.14285714285714
scalar BlockchainNetwork.iotNode[23] AverageBadServicesAt_60 0.14285714285714
scalar BlockchainNetwork.iotNode[24] AverageBadServicesAt_60 0.14285714285714
scalar BlockchainNetwork.iotNode[25] AverageBadServicesAt_60 0.14285714285714
scalar BlockchainNetwork.iotNode[26] AverageBadServicesAt_60 0.14285714285714
scalar BlockchainNetwork.iotNode[27] AverageBadServicesAt_60 0.14285714285714
scalar BlockchainNetwork.iotNode[28] AverageBadServicesAt_60 0.14285714285714
scalar BlockchainNetwork.iotNode[29] AverageBadServicesAt_60 0.14285714285714
scalar BlockchainNetwork.iotNode[30] AverageBadServicesAt_60 0.14285714285714
scalar BlockchainNetwork.iotNode[31] AverageBadServicesAt_60 0.14285714285714
scalar BlockchainNetwork.iotNode[32] AverageBadServicesAt_60 0.14285714285714
scalar BlockchainNetwork.iotNode[33] AverageBadServicesAt_60 0.14285714285714
scalar BlockchainNetwork.iotNode[34] AverageBadServicesAt_60 0.14285714285714
scalar BlockchainNetwork.iotNode[35] AverageBadServicesAt_60 0.14285714285714
scalar BlockchainNetwork.iotNode[36] AverageBadServicesAt_60 0.14285714285714
scalar BlockchainNetwork.iotNode[37] AverageBadServicesAt_60 0.14285714285714
scalar BlockchainNetwork.iotNode[38] AverageBadServicesAt_60 0.14285714285714
scalar BlockchainNetwork.iotNode[39] AverageBadServicesAt_60 0.14285714285714
scalar BlockchainNetwork.iotNode[40] AverageBadServicesAt_60 0.14285714285714
scalar BlockchainNetwork.iotNode[41] AverageBadServicesAt_60 0.14285714285714
scalar BlockchainNetwork.iotNode[42] AverageBadServicesAt_60 0.14285714285714
scalar BlockchainNetwork.iotNode[43] AverageBadServicesAt_60 0.14285714285714
scalar BlockchainNetwork.iotNode[44] AverageBadServicesAt_60 0.14285714285714
scalar BlockchainNetwork.iotNode[45] AverageBadServicesAt_60 0.14285714285714
scalar BlockchainNetwork.iotNode[46] AverageBadServicesAt_60 0.14285714285714
scalar BlockchainNetwork.iotNode[47] AverageBadServicesAt_60 0.14285714285714
scalar BlockchainNetwork.iotNode[48] AverageBadServicesAt_60 0.14285714285714
scalar BlockchainNetwork.iotNode[49] AverageBadServicesAt_60 0.14285714285714
scalar BlockchainNetwork.iotNode[50] AverageBadServicesAt_60 0.14285714285714
scalar BlockchainNetwork.iotNode[51] AverageBadServicesAt_60 0.14285714285714
scalar BlockchainNetwork.iotNode[52] AverageBadServicesAt_60 0.14285714285714
scalar BlockchainNetwork.iotNode[53] AverageBadServicesAt_60 0.14285714285714
scalar BlockchainNetwork.iotNode[54] AverageBadServicesAt_60 0.14285714285714
scalar BlockchainNetwork.iotNode[55] AverageBadServicesAt_60 0.14285714285714
scalar BlockchainNetwork.iotNode[56] AverageBadServicesAt_60 0.14285714285714
scalar BlockchainNetwork.iotNode[57] AverageBadServicesAt_60 0.14285714285714
scalar BlockchainNetwork.iotNode[58] AverageBadServicesAt_60 0.14285714285714
scalar BlockchainNetwork.iotNode[59] AverageBadServicesAt_60 0.14285714285714
scalar BlockchainNetwork.iotNode[60] AverageBadServicesAt_60 0.14285714285714
scalar BlockchainNetwork.iotNode[61] AverageBadServicesAt_60 0.14285714285714
scalar BlockchainNetwork.iotNode[62] AverageBadServicesAt_60 0.14285714285714
scalar BlockchainNetwork.iotNode[63] AverageBadServicesAt_60 0.14285714285714
scalar BlockchainNetwork.iotNode[64] AverageBadServicesAt_60 0.14285714285714
scalar BlockchainNetwork.iotNode[65] AverageBadServicesAt_60 0.14285714285714
scalar BlockchainNetwork.iotNode[66] AverageBadServicesAt_60 0.14285714285714
scalar BlockchainNetwork.iotNode[67] AverageBadServicesAt_60 0.14285714285714
scalar BlockchainNetwork.iotNode[68] AverageBadServicesAt_60 0.14285714285714
scalar BlockchainNetwork.iotNode[69] AverageBadServicesAt_60 0.14285714285714
scalar BlockchainNetwork.iotNode[70] AverageBadServicesAt_60 0.14285714285714
scalar BlockchainNetwork.iotNode[71] AverageBadServicesAt_60 0.14285714285714
scalar BlockchainNetwork.iotNode[72] AverageBadServicesAt_60 0.14285714285714
scalar BlockchainNetwork.iotNode[73] AverageBadServicesAt_60 0.14285714285714
scalar BlockchainNetwork.iotNode[74] AverageBadServicesAt_60 0.14285714285714
scalar BlockchainNetwork.iotNode[75] AverageBadServicesAt_60 0.14285714285714
scalar BlockchainNetwork.iotNode[76] AverageBadServicesAt_60 0.14285714285714
scalar BlockchainNetwork.iotNode[77] AverageBadServicesAt_60 0.14285714285714
scalar BlockchainNetwork.iotNode[78] AverageBadServicesAt_60 0.14285714285714
scalar BlockchainNetwork.iotNode[79] AverageBadServicesAt_60 0.14285714285714
scalar BlockchainNetwork.iotNode[80] AverageBadServicesAt_60 0.14285714285714
scalar BlockchainNetwork.iotNode[81] AverageBadServicesAt_60 0.14285714285714
scalar BlockchainNetwork.iotNode[82] AverageBadServicesAt_60 0.14285714285714
scalar BlockchainNetwork.iotNode[83] AverageBadServicesAt_60 0.14285714285714
scalar BlockchainNetwork.iotNode[84] AverageBadServicesAt_60 0.14285714285714
scalar BlockchainNetwork.iotNode[85] AverageBadServicesAt_60 0.14285714285714
scalar BlockchainNetwork.iotNode[86] AverageBadServicesAt_60 0.14285714285714
scalar BlockchainNetwork.iotNode[87] AverageBadServicesAt_60 0.14285714285714
scalar BlockchainNetwork.iotNode[88] AverageBadServicesAt_60 0.14285714285714
scalar BlockchainNetwork.iotNode[89] AverageBadServicesAt_60 0.14285714285714
scalar BlockchainNetwork.iotNode[90] AverageBadServicesAt_60 0.14285714285714
scalar BlockchainNetwork.iotNode[91] AverageBadServicesAt_60 0.14285714285714
scalar BlockchainNetwork.iotNode[92] AverageBadServicesAt_60 0.14285714285714
scalar BlockchainNetwork.iotNode[93] AverageBadServicesAt_60 0.14285714285714
scalar BlockchainNetwork.iotNode[94] AverageBadServicesAt_60 0.14285714285714
scalar BlockchainNetwork.iotNode[95] AverageBadServicesAt_60 0.14285714285714
scalar BlockchainNetwork.iotNode[96] AverageBadServicesAt_60 0.14285714285714
scalar BlockchainNetwork.iotNode[97] AverageBadServicesAt_60 0.14285714285714
scalar BlockchainNetwork.iotNode[98] AverageBadServicesAt_60 0.14285714285714
scalar BlockchainNetwork.iotNode[99] AverageBadServicesAt_60 0.14285714285714
scalar BlockchainNetwork.iotNode[0] AverageBadServicesAt_70 0.15714285714286
scalar BlockchainNetwork.iotNode[1] AverageBadServicesAt_70 0.15714285714286
scalar BlockchainNetwork.iotNode[2] AverageBadServicesAt_70 0.15714285714286
scalar BlockchainNetwork.iotNode[3] AverageBadServicesAt_70 0.15714285714286
scalar BlockchainNetwork.iotNode[4] AverageBadServicesAt_70 0.15714285714286
scalar BlockchainNetwork.iotNode[5] AverageBadServicesAt_70 0.15714285714286
scalar BlockchainNetwork.iotNode[6] AverageBadServicesAt_70 0.15714285714286
scalar BlockchainNetwork.iotNode[7] AverageBadServicesAt_70 0.15714285714286
scalar BlockchainNetwork.iotNode[8] AverageBadServicesAt_70 0.15714285714286
scalar BlockchainNetwork.iotNode[9] AverageBadServicesAt_70 0.15714285714286
scalar BlockchainNetwork.iotNode[10] AverageBadServicesAt_70 0.15714285714286
scalar BlockchainNetwork.iotNode[11] AverageBadServicesAt_70 0.15714285714286
scalar BlockchainNetwork.iotNode[12] AverageBadServicesAt_70 0.15714285714286
scalar BlockchainNetwork.iotNode[13] AverageBadServicesAt_70 0.15714285714286
scalar BlockchainNetwork.iotNode[14] AverageBadServicesAt_70 0.15714285714286
scalar BlockchainNetwork.iotNode[15] AverageBadServicesAt_70 0.15714285714286
scalar BlockchainNetwork.iotNode[16] AverageBadServicesAt_70 0.15714285714286
scalar BlockchainNetwork.iotNode[17] AverageBadServicesAt_70 0.15714285714286
scalar BlockchainNetwork.iotNode[18] AverageBadServicesAt_70 0.15714285714286
scalar BlockchainNetwork.iotNode[19] AverageBadServicesAt_70 0.15714285714286
scalar BlockchainNetwork.iotNode[20] AverageBadServicesAt_70 0.15714285714286
scalar BlockchainNetwork.iotNode[21] AverageBadServicesAt_70 0.15714285714286
scalar BlockchainNetwork.iotNode[22] AverageBadServicesAt_70 0.15714285714286
scalar BlockchainNetwork.iotNode[23] AverageBadServicesAt_70 0.15714285714286
scalar BlockchainNetwork.iotNode[24] AverageBadServicesAt_70 0.15714285714286
scalar BlockchainNetwork.iotNode[25] AverageBadServicesAt_70 0.15714285714286
scalar BlockchainNetwork.iotNode[26] AverageBadServicesAt_70 0.15714285714286
scalar BlockchainNetwork.iotNode[27] AverageBadServicesAt_70 0.15714285714286
scalar BlockchainNetwork.iotNode[28] AverageBadServicesAt_70 0.15714285714286
scalar BlockchainNetwork.iotNode[29] AverageBadServicesAt_70 0.15714285714286
scalar BlockchainNetwork.iotNode[30] AverageBadServicesAt_70 0.15714285714286
scalar BlockchainNetwork.iotNode[31] AverageBadServicesAt_70 0.15714285714286
scalar BlockchainNetwork.iotNode[32] AverageBadServicesAt_70 0.15714285714286
scalar BlockchainNetwork.iotNode[33] AverageBadServicesAt_70 0.15714285714286
scalar BlockchainNetwork.iotNode[34] AverageBadServicesAt_70 0.15714285714286
scalar BlockchainNetwork.iotNode[35] AverageBadServicesAt_70 0.15714285714286
scalar BlockchainNetwork.iotNode[36] AverageBadServicesAt_70 0.15714285714286
scalar BlockchainNetwork.iotNode[37] AverageBadServicesAt_70 0.15714285714286
scalar BlockchainNetwork.iotNode[38] AverageBadServicesAt_70 0.15714285714286
scalar BlockchainNetwork.iotNode[39] AverageBadServicesAt_70 0.15714285714286
scalar BlockchainNetwork.iotNode[40] AverageBadServicesAt_70 0.15714285714286
scalar BlockchainNetwork.iotNode[41] AverageBadServicesAt_70 0.15714285714286
scalar BlockchainNetwork.iotNode[42] AverageBadServicesAt_70 0.15714285714286
scalar BlockchainNetwork.iotNode[43] AverageBadServicesAt_70 0.15714285714286
scalar BlockchainNetwork.iotNode[44] AverageBadServicesAt_70 0.15714285714286
scalar BlockchainNetwork.iotNode[45] AverageBadServicesAt_70 0.15714285714286
scalar BlockchainNetwork.iotNode[46] AverageBadServicesAt_70 0.15714285714286
scalar BlockchainNetwork.iotNode[47] AverageBadServicesAt_70 0.15714285714286
scalar BlockchainNetwork.iotNode[48] AverageBadServicesAt_70 0.15714285714286
scalar BlockchainNetwork.iotNode[49] AverageBadServicesAt_70 0.15714285714286
scalar BlockchainNetwork.iotNode[50] AverageBadServicesAt_70 0.15714285714286
scalar BlockchainNetwork.iotNode[51] AverageBadServicesAt_70 0.15714285714286
scalar BlockchainNetwork.iotNode[52] AverageBadServicesAt_70 0.15714285714286
scalar BlockchainNetwork.iotNode[53] AverageBadServicesAt_70 0.15714285714286
scalar BlockchainNetwork.iotNode[54] AverageBadServicesAt_70 0.15714285714286
scalar BlockchainNetwork.iotNode[55] AverageBadServicesAt_70 0.15714285714286
scalar BlockchainNetwork.iotNode[56] AverageBadServicesAt_70 0.15714285714286
scalar BlockchainNetwork.iotNode[57] AverageBadServicesAt_70 0.15714285714286
scalar BlockchainNetwork.iotNode[58] AverageBadServicesAt_70 0.15714285714286
scalar BlockchainNetwork.iotNode[59] AverageBadServicesAt_70 0.15714285714286
scalar BlockchainNetwork.iotNode[60] AverageBadServicesAt_70 0.15714285714286
scalar BlockchainNetwork.iotNode[61] AverageBadServicesAt_70 0.15714285714286
scalar BlockchainNetwork.iotNode[62] AverageBadServicesAt_70 0.15714285714286
scalar BlockchainNetwork.iotNode[63] AverageBadServicesAt_70 0.15714285714286
scalar BlockchainNetwork.iotNode[64] AverageBadServicesAt_70 0.15714285714286
scalar BlockchainNetwork.iotNode[65] AverageBadServicesAt_70 0.15714285714286
scalar BlockchainNetwork.iotNode[66] AverageBadServicesAt_70 0.15714285714286
scalar BlockchainNetwork.iotNode[67] AverageBadServicesAt_70 0.15714285714286
scalar BlockchainNetwork.iotNode[68] AverageBadServicesAt_70 0.15714285714286
scalar BlockchainNetwork.iotNode[69] AverageBadServicesAt_70 0.15714285714286
scalar BlockchainNetwork.iotNode[70] AverageBadServicesAt_70 0.15714285714286
scalar BlockchainNetwork.iotNode[71] AverageBadServicesAt_70 0.15714285714286
scalar BlockchainNetwork.iotNode[72] AverageBadServicesAt_70 0.15714285714286
scalar BlockchainNetwork.iotNode[73] AverageBadServicesAt_70 0.15714285714286
scalar BlockchainNetwork.iotNode[74] AverageBadServicesAt_70 0.15714285714286
scalar BlockchainNetwork.iotNode[75] AverageBadServicesAt_70 0.15714285714286
scalar BlockchainNetwork.iotNode[76] AverageBadServicesAt_70 0.15714285714286
scalar BlockchainNetwork.iotNode[77] AverageBadServicesAt_70 0.15714285714286
scalar BlockchainNetwork.iotNode[78] AverageBadServicesAt_70 0.15714285714286
scalar BlockchainNetwork.iotNode[79] AverageBadServicesAt_70 0.15714285714286
scalar BlockchainNetwork.iotNode[80] AverageBadServicesAt_70 0.15714285714286
scalar BlockchainNetwork.iotNode[81] AverageBadServicesAt_70 0.15714285714286
scalar BlockchainNetwork.iotNode[82] AverageBadServicesAt_70 0.15714285714286
scalar BlockchainNetwork.iotNode[83] AverageBadServicesAt_70 0.15714285714286
scalar BlockchainNetwork.iotNode[84] AverageBadServicesAt_70 0.15714285714286
scalar BlockchainNetwork.iotNode[85] AverageBadServicesAt_70 0.15714285714286
scalar BlockchainNetwork.iotNode[86] AverageBadServicesAt_70 0.15714285714286
scalar BlockchainNetwork.iotNode[87] AverageBadServicesAt_70 0.15714285714286
scalar BlockchainNetwork.iotNode[88] AverageBadServicesAt_70 0.15714285714286
scalar BlockchainNetwork.iotNode[89] AverageBadServicesAt_70 0.15714285714286
scalar BlockchainNetwork.iotNode[90] AverageBadServicesAt_70 0.15714285714286
scalar BlockchainNetwork.iotNode[91] AverageBadServicesAt_70 0.15714285714286
scalar BlockchainNetwork.iotNode[92] AverageBadServicesAt_70 0.15714285714286
scalar BlockchainNetwork.iotNode[93] AverageBadServicesAt_70 0.15714285714286
scalar BlockchainNetwork.iotNode[94] AverageBadServicesAt_70 0.15714285714286
scalar BlockchainNetwork.iotNode[95] AverageBadServicesAt_70 0.15714285714286
scalar BlockchainNetwork.iotNode[96] AverageBadServicesAt_70 0.15714285714286
scalar BlockchainNetwork.iotNode[97] AverageBadServicesAt_70 0.15714285714286
scalar BlockchainNetwork.iotNode[98] AverageBadServicesAt_70 0.15714285714286
scalar BlockchainNetwork.iotNode[99] AverageBadServicesAt_70 0.15714285714286
scalar BlockchainNetwork.iotNode[0] AverageBadServicesAt_80 0.17142857142857
scalar BlockchainNetwork.iotNode[1] AverageBadServicesAt_80 0.17142857142857
scalar BlockchainNetwork.iotNode[2] AverageBadServicesAt_80 0.17142857142857
scalar BlockchainNetwork.iotNode[3] AverageBadServicesAt_80 0.17142857142857
scalar BlockchainNetwork.iotNode[4] AverageBadServicesAt_80 0.17142857142857
scalar BlockchainNetwork.iotNode[5] AverageBadServicesAt_80 0.17142857142857
scalar BlockchainNetwork.iotNode[6] AverageBadServicesAt_80 0.17142857142857
scalar BlockchainNetwork.iotNode[7] AverageBadServicesAt_80 0.17142857142857
scalar BlockchainNetwork.iotNode[8] AverageBadServicesAt_80 0.17142857142857
scalar BlockchainNetwork.iotNode[9] AverageBadServicesAt_80 0.17142857142857
scalar BlockchainNetwork.iotNode[10] AverageBadServicesAt_80 0.17142857142857
scalar BlockchainNetwork.iotNode[11] AverageBadServicesAt_80 0.17142857142857
scalar BlockchainNetwork.iotNode[12] AverageBadServicesAt_80 0.17142857142857
scalar BlockchainNetwork.iotNode[13] AverageBadServicesAt_80 0.17142857142857
scalar BlockchainNetwork.iotNode[14] AverageBadServicesAt_80 0.17142857142857
scalar BlockchainNetwork.iotNode[15] AverageBadServicesAt_80 0.17142857142857
scalar BlockchainNetwork.iotNode[16] AverageBadServicesAt_80 0.17142857142857
scalar BlockchainNetwork.iotNode[17] AverageBadServicesAt_80 0.17142857142857
scalar BlockchainNetwork.iotNode[18] AverageBadServicesAt_80 0.17142857142857
scalar BlockchainNetwork.iotNode[19] AverageBadServicesAt_80 0.17142857142857
scalar BlockchainNetwork.iotNode[20] AverageBadServicesAt_80 0.17142857142857
scalar BlockchainNetwork.iotNode[21] AverageBadServicesAt_80 0.17142857142857
scalar BlockchainNetwork.iotNode[22] AverageBadServicesAt_80 0.17142857142857
scalar BlockchainNetwork.iotNode[23] AverageBadServicesAt_80 0.17142857142857
scalar BlockchainNetwork.iotNode[24] AverageBadServicesAt_80 0.17142857142857
scalar BlockchainNetwork.iotNode[25] AverageBadServicesAt_80 0.17142857142857
scalar BlockchainNetwork.iotNode[26] AverageBadServicesAt_80 0.17142857142857
scalar BlockchainNetwork.iotNode[27] AverageBadServicesAt_80 0.17142857142857
scalar BlockchainNetwork.iotNode[28] AverageBadServicesAt_80 0.17142857142857
scalar BlockchainNetwork.iotNode[29] AverageBadServicesAt_80 0.17142857142857
scalar BlockchainNetwork.iotNode[30] AverageBadServicesAt_80 0.17142857142857
scalar BlockchainNetwork.iotNode[31] AverageBadServicesAt_80 0.17142857142857
scalar BlockchainNetwork.iotNode[32] AverageBadServicesAt_80 0.17142857142857
scalar BlockchainNetwork.iotNode[33] AverageBadServicesAt_80 0.17142857142857
scalar BlockchainNetwork.iotNode[34] AverageBadServicesAt_80 0.17142857142857
scalar BlockchainNetwork.iotNode[35] AverageBadServicesAt_80 0.17142857142857
scalar BlockchainNetwork.iotNode[36] AverageBadServicesAt_80 0.17142857142857
scalar BlockchainNetwork.iotNode[37] AverageBadServicesAt_80 0.17142857142857
scalar BlockchainNetwork.iotNode[38] AverageBadServicesAt_80 0.17142857142857
scalar BlockchainNetwork.iotNode[39] AverageBadServicesAt_80 0.17142857142857
scalar BlockchainNetwork.iotNode[40] AverageBadServicesAt_80 0.17142857142857
scalar BlockchainNetwork.iotNode[41] AverageBadServicesAt_80 0.17142857142857
scalar BlockchainNetwork.iotNode[42] AverageBadServicesAt_80 0.17142857142857
scalar BlockchainNetwork.iotNode[43] AverageBadServicesAt_80 0.17142857142857
scalar BlockchainNetwork.iotNode[44] AverageBadServicesAt_80 0.17142857142857
scalar BlockchainNetwork.iotNode[45] AverageBadServicesAt_80 0.17142857142857
scalar BlockchainNetwork.iotNode[46] AverageBadServicesAt_80 0.17142857142857
scalar BlockchainNetwork.iotNode[47] AverageBadServicesAt_80 0.17142857142857
scalar BlockchainNetwork.iotNode[48] AverageBadServicesAt_80 0.17142857142857
scalar BlockchainNetwork.iotNode[49] AverageBadServicesAt_80 0.17142857142857
scalar BlockchainNetwork.iotNode[50] AverageBadServicesAt_80 0.17142857142857
scalar BlockchainNetwork.iotNode[51] AverageBadServicesAt_80 0.17142857142857
scalar BlockchainNetwork.iotNode[52] AverageBadServicesAt_80 0.17142857142857
scalar BlockchainNetwork.iotNode[53] AverageBadServicesAt_80 0.17142857142857
scalar BlockchainNetwork.iotNode[54] AverageBadServicesAt_80 0.17142857142857
scalar BlockchainNetwork.iotNode[55] AverageBadServicesAt_80 0.17142857142857
scalar BlockchainNetwork.iotNode[56] AverageBadServicesAt_80 0.17142857142857
scalar BlockchainNetwork.iotNode[57] AverageBadServicesAt_80 0.17142857142857
scalar BlockchainNetwork.iotNode[58] AverageBadServicesAt_80 0.17142857142857
scalar BlockchainNetwork.iotNode[59] AverageBadServicesAt_80 0.17142857142857
scalar BlockchainNetwork.iotNode[60] AverageBadServicesAt_80 0.17142857142857
scalar BlockchainNetwork.iotNode[61] AverageBadServicesAt_80 0.17142857142857
scalar BlockchainNetwork.iotNode[62] AverageBadServicesAt_80 0.17142857142857
scalar BlockchainNetwork.iotNode[63] AverageBadServicesAt_80 0.17142857142857
scalar BlockchainNetwork.iotNode[64] AverageBadServicesAt_80 0.17142857142857
scalar BlockchainNetwork.iotNode[65] AverageBadServicesAt_80 0.17142857142857
scalar BlockchainNetwork.iotNode[66] AverageBadServicesAt_80 0.17142857142857
scalar BlockchainNetwork.iotNode[67] AverageBadServicesAt_80 0.17142857142857
scalar BlockchainNetwork.iotNode[68] AverageBadServicesAt_80 0.17142857142857
scalar BlockchainNetwork.iotNode[69] AverageBadServicesAt_80 0.17142857142857
scalar BlockchainNetwork.iotNode[70] AverageBadServicesAt_80 0.17142857142857
scalar BlockchainNetwork.iotNode[71] AverageBadServicesAt_80 0.17142857142857
scalar BlockchainNetwork.iotNode[72] AverageBadServicesAt_80 0.17142857142857
scalar BlockchainNetwork.iotNode[73] AverageBadServicesAt_80 0.17142857142857
scalar BlockchainNetwork.iotNode[74] AverageBadServicesAt_80 0.17142857142857
scalar BlockchainNetwork.iotNode[75] AverageBadServicesAt_80 0.17142857142857
scalar BlockchainNetwork.iotNode[76] AverageBadServicesAt_80 0.17142857142857
scalar BlockchainNetwork.iotNode[77] AverageBadServicesAt_80 0.17142857142857
scalar BlockchainNetwork.iotNode[78] AverageBadServicesAt_80 0.17142857142857
scalar BlockchainNetwork.iotNode[79] AverageBadServicesAt_80 0.17142857142857
scalar BlockchainNetwork.iotNode[80] AverageBadServicesAt_80 0.17142857142857
scalar BlockchainNetwork.iotNode[81] AverageBadServicesAt_80 0.17142857142857
scalar BlockchainNetwork.iotNode[82] AverageBadServicesAt_80 0.17142857142857
scalar BlockchainNetwork.iotNode[83] AverageBadServicesAt_80 0.17142857142857
scalar BlockchainNetwork.iotNode[84] AverageBadServicesAt_80 0.17142857142857
scalar BlockchainNetwork.iotNode[85] AverageBadServicesAt_80 0.17142857142857
scalar BlockchainNetwork.iotNode[86] AverageBadServicesAt_80 0.17142857142857
scalar BlockchainNetwork.iotNode[87] AverageBadServicesAt_80 0.17142857142857
scalar BlockchainNetwork.iotNode[88] AverageBadServicesAt_80 0.17142857142857
scalar BlockchainNetwork.iotNode[89] AverageBadServicesAt_80 0.17142857142857
scalar BlockchainNetwork.iotNode[90] AverageBadServicesAt_80 0.17142857142857
scalar BlockchainNetwork.iotNode[91] AverageBadServicesAt_80 0.17142857142857
scalar BlockchainNetwork.iotNode[92] AverageBadServicesAt_80 0.17142857142857
scalar BlockchainNetwork.iotNode[93] AverageBadServicesAt_80 0.17142857142857
scalar BlockchainNetwork.iotNode[94] AverageBadServicesAt_80 0.17142857142857
scalar BlockchainNetwork.iotNode[95] AverageBadServicesAt_80 0.17142857142857
scalar BlockchainNetwork.iotNode[96] AverageBadServicesAt_80 0.17142857142857
scalar BlockchainNetwork.iotNode[97] AverageBadServicesAt_80 0.17142857142857
scalar BlockchainNetwork.iotNode[98] AverageBadServicesAt_80 0.17142857142857
scalar BlockchainNetwork.iotNode[99] AverageBadServicesAt_80 0.17142857142857
scalar BlockchainNetwork.iotNode[0] AverageBadServicesAt_90 0.17142857142857
scalar BlockchainNetwork.iotNode[1] AverageBadServicesAt_90 0.17142857142857
scalar BlockchainNetwork.iotNode[2] AverageBadServicesAt_90 0.17142857142857
scalar BlockchainNetwork.iotNode[3] AverageBadServicesAt_90 0.17142857142857
scalar BlockchainNetwork.iotNode[4] AverageBadServicesAt_90 0.17142857142857
scalar BlockchainNetwork.iotNode[5] AverageBadServicesAt_90 0.17142857142857
scalar BlockchainNetwork.iotNode[6] AverageBadServicesAt_90 0.17142857142857
scalar BlockchainNetwork.iotNode[7] AverageBadServicesAt_90 0.17142857142857
scalar BlockchainNetwork.iotNode[8] AverageBadServicesAt_90 0.17142857142857
scalar BlockchainNetwork.iotNode[9] AverageBadServicesAt_90 0.17142857142857
scalar BlockchainNetwork.iotNode[10] AverageBadServicesAt_90 0.17142857142857
scalar BlockchainNetwork.iotNode[11] AverageBadServicesAt_90 0.17142857142857
scalar BlockchainNetwork.iotNode[12] AverageBadServicesAt_90 0.17142857142857
scalar BlockchainNetwork.iotNode[13] AverageBadServicesAt_90 0.17142857142857
scalar BlockchainNetwork.iotNode[14] AverageBadServicesAt_90 0.17142857142857
scalar BlockchainNetwork.iotNode[15] AverageBadServicesAt_90 0.17142857142857
scalar BlockchainNetwork.iotNode[16] AverageBadServicesAt_90 0.17142857142857
scalar BlockchainNetwork.iotNode[17] AverageBadServicesAt_90 0.17142857142857
scalar BlockchainNetwork.iotNode[18] AverageBadServicesAt_90 0.17142857142857
scalar BlockchainNetwork.iotNode[19] AverageBadServicesAt_90 0.17142857142857
scalar BlockchainNetwork.iotNode[20] AverageBadServicesAt_90 0.17142857142857
scalar BlockchainNetwork.iotNode[21] AverageBadServicesAt_90 0.17142857142857
scalar BlockchainNetwork.iotNode[22] AverageBadServicesAt_90 0.17142857142857
scalar BlockchainNetwork.iotNode[23] AverageBadServicesAt_90 0.17142857142857
scalar BlockchainNetwork.iotNode[24] AverageBadServicesAt_90 0.17142857142857
scalar BlockchainNetwork.iotNode[25] AverageBadServicesAt_90 0.17142857142857
scalar BlockchainNetwork.iotNode[26] AverageBadServicesAt_90 0.17142857142857
scalar BlockchainNetwork.iotNode[27] AverageBadServicesAt_90 0.17142857142857
scalar BlockchainNetwork.iotNode[28] AverageBadServicesAt_90 0.17142857142857
scalar BlockchainNetwork.iotNode[29] AverageBadServicesAt_90 0.17142857142857
scalar BlockchainNetwork.iotNode[30] AverageBadServicesAt_90 0.17142857142857
scalar BlockchainNetwork.iotNode[31] AverageBadServicesAt_90 0.17142857142857
scalar BlockchainNetwork.iotNode[32] AverageBadServicesAt_90 0.17142857142857
scalar BlockchainNetwork.iotNode[33] AverageBadServicesAt_90 0.17142857142857
scalar BlockchainNetwork.iotNode[34] AverageBadServicesAt_90 0.17142857142857
scalar BlockchainNetwork.iotNode[35] AverageBadServicesAt_90 0.17142857142857
scalar BlockchainNetwork.iotNode[36] AverageBadServicesAt_90 0.17142857142857
scalar BlockchainNetwork.iotNode[37] AverageBadServicesAt_90 0.17142857142857
scalar BlockchainNetwork.iotNode[38] AverageBadServicesAt_90 0.17142857142857
scalar BlockchainNetwork.iotNode[39] AverageBadServicesAt_90 0.17142857142857
scalar BlockchainNetwork.iotNode[40] AverageBadServicesAt_90 0.17142857142857
scalar BlockchainNetwork.iotNode[41] AverageBadServicesAt_90 0.17142857142857
scalar BlockchainNetwork.iotNode[42] AverageBadServicesAt_90 0.17142857142857
scalar BlockchainNetwork.iotNode[43] AverageBadServicesAt_90 0.17142857142857
scalar BlockchainNetwork.iotNode[44] AverageBadServicesAt_90 0.17142857142857
scalar BlockchainNetwork.iotNode[45] AverageBadServicesAt_90 0.17142857142857
scalar BlockchainNetwork.iotNode[46] AverageBadServicesAt_90 0.17142857142857
scalar BlockchainNetwork.iotNode[47] AverageBadServicesAt_90 0.17142857142857
scalar BlockchainNetwork.iotNode[48] AverageBadServicesAt_90 0.17142857142857
scalar BlockchainNetwork.iotNode[49] AverageBadServicesAt_90 0.17142857142857
scalar BlockchainNetwork.iotNode[50] AverageBadServicesAt_90 0.17142857142857
scalar BlockchainNetwork.iotNode[51] AverageBadServicesAt_90 0.17142857142857
scalar BlockchainNetwork.iotNode[52] AverageBadServicesAt_90 0.17142857142857
scalar BlockchainNetwork.iotNode[53] AverageBadServicesAt_90 0.17142857142857
scalar BlockchainNetwork.iotNode[54] AverageBadServicesAt_90 0.17142857142857
scalar BlockchainNetwork.iotNode[55] AverageBadServicesAt_90 0.17142857142857
scalar BlockchainNetwork.iotNode[56] AverageBadServicesAt_90 0.17142857142857
scalar BlockchainNetwork.iotNode[57] AverageBadServicesAt_90 0.17142857142857
scalar BlockchainNetwork.iotNode[58] AverageBadServicesAt_90 0.17142857142857
scalar BlockchainNetwork.iotNode[59] AverageBadServicesAt_90 0.17142857142857
scalar BlockchainNetwork.iotNode[60] AverageBadServicesAt_90 0.17142857142857
scalar BlockchainNetwork.iotNode[61] AverageBadServicesAt_90 0.17142857142857
scalar BlockchainNetwork.iotNode[62] AverageBadServicesAt_90 0.17142857142857
scalar BlockchainNetwork.iotNode[63] AverageBadServicesAt_90 0.17142857142857
scalar BlockchainNetwork.iotNode[64] AverageBadServicesAt_90 0.17142857142857
scalar BlockchainNetwork.iotNode[65] AverageBadServicesAt_90 0.17142857142857
scalar BlockchainNetwork.iotNode[66] AverageBadServicesAt_90 0.17142857142857
scalar BlockchainNetwork.iotNode[67] AverageBadServicesAt_90 0.17142857142857
scalar BlockchainNetwork.iotNode[68] AverageBadServicesAt_90 0.17142857142857
scalar BlockchainNetwork.iotNode[69] AverageBadServicesAt_90 0.17142857142857
scalar BlockchainNetwork.iotNode[70] AverageBadServicesAt_90 0.17142857142857
scalar BlockchainNetwork.iotNode[71] AverageBadServicesAt_90 0.17142857142857
scalar BlockchainNetwork.iotNode[72] AverageBadServicesAt_90 0.17142857142857
scalar BlockchainNetwork.iotNode[73] AverageBadServicesAt_90 0.17142857142857
scalar BlockchainNetwork.iotNode[74] AverageBadServicesAt_90 0.17142857142857
scalar BlockchainNetwork.iotNode[75] AverageBadServicesAt_90 0.17142857142857
scalar BlockchainNetwork.iotNode[76] AverageBadServicesAt_90 0.17142857142857
scalar BlockchainNetwork.iotNode[77] AverageBadServicesAt_90 0.17142857142857
scalar BlockchainNetwork.iotNode[78] AverageBadServicesAt_90 0.17142857142857
scalar BlockchainNetwork.iotNode[79] AverageBadServicesAt_90 0.17142857142857
scalar BlockchainNetwork.iotNode[80] AverageBadServicesAt_90 0.17142857142857
scalar BlockchainNetwork.iotNode[81] AverageBadServicesAt_90 0.17142857142857
scalar BlockchainNetwork.iotNode[82] AverageBadServicesAt_90 0.17142857142857
scalar BlockchainNetwork.iotNode[83] AverageBadServicesAt_90 0.17142857142857
scalar BlockchainNetwork.iotNode[84] AverageBadServicesAt_90 0.17142857142857
scalar BlockchainNetwork.iotNode[85] AverageBadServicesAt_90 0.17142857142857
scalar BlockchainNetwork.iotNode[86] AverageBadServicesAt_90 0.17142857142857
scalar BlockchainNetwork.iotNode[87] AverageBadServicesAt_90 0.17142857142857
scalar BlockchainNetwork.iotNode[88] AverageBadServicesAt_90 0.17142857142857
scalar BlockchainNetwork.iotNode[89] AverageBadServicesAt_90 0.17142857142857
scalar BlockchainNetwork.iotNode[90] AverageBadServicesAt_90 0.17142857142857
scalar BlockchainNetwork.iotNode[91] AverageBadServicesAt_90 0.17142857142857
scalar BlockchainNetwork.iotNode[92] AverageBadServicesAt_90 0.17142857142857
scalar BlockchainNetwork.iotNode[93] AverageBadServicesAt_90 0.17142857142857
scalar BlockchainNetwork.iotNode[94] AverageBadServicesAt_90 0.17142857142857
scalar BlockchainNetwork.iotNode[95] AverageBadServicesAt_90 0.17142857142857
scalar BlockchainNetwork.iotNode[96] AverageBadServicesAt_90 0.17142857142857
scalar BlockchainNetwork.iotNode[97] AverageBadServicesAt_90 0.17142857142857
scalar BlockchainNetwork.iotNode[98] AverageBadServicesAt_90 0.17142857142857
scalar BlockchainNetwork.iotNode[99] AverageBadServicesAt_90 0.17142857142857
scalar BlockchainNetwork.iotNode[0] AverageBadServicesAt_100 0.17142857142857
scalar BlockchainNetwork.iotNode[1] AverageBadServicesAt_100 0.17142857142857
scalar BlockchainNetwork.iotNode[2] AverageBadServicesAt_100 0.17142857142857
scalar BlockchainNetwork.iotNode[3] AverageBadServicesAt_100 0.17142857142857
scalar BlockchainNetwork.iotNode[4] AverageBadServicesAt_100 0.17142857142857
scalar BlockchainNetwork.iotNode[5] AverageBadServicesAt_100 0.17142857142857
scalar BlockchainNetwork.iotNode[6] AverageBadServicesAt_100 0.17142857142857
scalar BlockchainNetwork.iotNode[7] AverageBadServicesAt_100 0.17142857142857
scalar BlockchainNetwork.iotNode[8] AverageBadServicesAt_100 0.17142857142857
scalar BlockchainNetwork.iotNode[9] AverageBadServicesAt_100 0.17142857142857
scalar BlockchainNetwork.iotNode[10] AverageBadServicesAt_100 0.17142857142857
scalar BlockchainNetwork.iotNode[11] AverageBadServicesAt_100 0.17142857142857
scalar BlockchainNetwork.iotNode[12] AverageBadServicesAt_100 0.17142857142857
scalar BlockchainNetwork.iotNode[13] AverageBadServicesAt_100 0.17142857142857
scalar BlockchainNetwork.iotNode[14] AverageBadServicesAt_100 0.17142857142857
scalar BlockchainNetwork.iotNode[15] AverageBadServicesAt_100 0.17142857142857
scalar BlockchainNetwork.iotNode[16] AverageBadServicesAt_100 0.17142857142857
scalar BlockchainNetwork.iotNode[17] AverageBadServicesAt_100 0.17142857142857
scalar BlockchainNetwork.iotNode[18] AverageBadServicesAt_100 0.17142857142857
scalar BlockchainNetwork.iotNode[19] AverageBadServicesAt_100 0.17142857142857
scalar BlockchainNetwork.iotNode[20] AverageBadServicesAt_100 0.17142857142857
scalar BlockchainNetwork.iotNode[21] AverageBadServicesAt_100 0.17142857142857
scalar BlockchainNetwork.iotNode[22] AverageBadServicesAt_100 0.17142857142857
scalar BlockchainNetwork.iotNode[23] AverageBadServicesAt_100 0.17142857142857
scalar BlockchainNetwork.iotNode[24] AverageBadServicesAt_100 0.17142857142857
scalar BlockchainNetwork.iotNode[25] AverageBadServicesAt_100 0.17142857142857
scalar BlockchainNetwork.iotNode[26] AverageBadServicesAt_100 0.17142857142857
scalar BlockchainNetwork.iotNode[27] AverageBadServicesAt_100 0.17142857142857
scalar BlockchainNetwork.iotNode[28] AverageBadServicesAt_100 0.17142857142857
scalar BlockchainNetwork.iotNode[29] AverageBadServicesAt_100 0.17142857142857
scalar BlockchainNetwork.iotNode[30] AverageBadServicesAt_100 0.17142857142857
scalar BlockchainNetwork.iotNode[31] AverageBadServicesAt_100 0.17142857142857
scalar BlockchainNetwork.iotNode[32] AverageBadServicesAt_100 0.17142857142857
scalar BlockchainNetwork.iotNode[33] AverageBadServicesAt_100 0.17142857142857
scalar BlockchainNetwork.iotNode[34] AverageBadServicesAt_100 0.17142857142857
scalar BlockchainNetwork.iotNode[35] AverageBadServicesAt_100 0.17142857142857
scalar BlockchainNetwork.iotNode[36] AverageBadServicesAt_100 0.17142857142857
scalar BlockchainNetwork.iotNode[37] AverageBadServicesAt_100 0.17142857142857
scalar BlockchainNetwork.iotNode[38] AverageBadServicesAt_100 0.17142857142857
scalar BlockchainNetwork.iotNode[39] AverageBadServicesAt_100 0.17142857142857
scalar BlockchainNetwork.iotNode[40] AverageBadServicesAt_100 0.17142857142857
scalar BlockchainNetwork.iotNode[41] AverageBadServicesAt_100 0.17142857142857
scalar BlockchainNetwork.iotNode[42] AverageBadServicesAt_100 0.17142857142857
scalar BlockchainNetwork.iotNode[43] AverageBadServicesAt_100 0.17142857142857
scalar BlockchainNetwork.iotNode[44] AverageBadServicesAt_100 0.17142857142857
scalar BlockchainNetwork.iotNode[45] AverageBadServicesAt_100 0.17142857142857
scalar BlockchainNetwork.iotNode[46] AverageBadServicesAt_100 0.17142857142857
scalar BlockchainNetwork.iotNode[47] AverageBadServicesAt_100 0.17142857142857
scalar BlockchainNetwork.iotNode[48] AverageBadServicesAt_100 0.17142857142857
scalar BlockchainNetwork.iotNode[49] AverageBadServicesAt_100 0.17142857142857
scalar BlockchainNetwork.iotNode[50] AverageBadServicesAt_100 0.17142857142857
scalar BlockchainNetwork.iotNode[51] AverageBadServicesAt_100 0.17142857142857
scalar BlockchainNetwork.iotNode[52] AverageBadServicesAt_100 0.17142857142857
scalar BlockchainNetwork.iotNode[53] AverageBadServicesAt_100 0.17142857142857
scalar BlockchainNetwork.iotNode[54] AverageBadServicesAt_100 0.17142857142857
scalar BlockchainNetwork.iotNode[55] AverageBadServicesAt_100 0.17142857142857
scalar BlockchainNetwork.iotNode[56] AverageBadServicesAt_100 0.17142857142857
scalar BlockchainNetwork.iotNode[57] AverageBadServicesAt_100 0.17142857142857
scalar BlockchainNetwork.iotNode[58] AverageBadServicesAt_100 0.17142857142857
scalar BlockchainNetwork.iotNode[59] AverageBadServicesAt_100 0.17142857142857
scalar BlockchainNetwork.iotNode[60] AverageBadServicesAt_100 0.17142857142857
scalar BlockchainNetwork.iotNode[61] AverageBadServicesAt_100 0.17142857142857
scalar BlockchainNetwork.iotNode[62] AverageBadServicesAt_100 0.17142857142857
scalar BlockchainNetwork.iotNode[63] AverageBadServicesAt_100 0.17142857142857
scalar BlockchainNetwork.iotNode[64] AverageBadServicesAt_100 0.17142857142857
scalar BlockchainNetwork.iotNode[65] AverageBadServicesAt_100 0.17142857142857
scalar BlockchainNetwork.iotNode[66] AverageBadServicesAt_100 0.17142857142857
scalar BlockchainNetwork.iotNode[67] AverageBadServicesAt_100 0.17142857142857
scalar BlockchainNetwork.iotNode[68] AverageBadServicesAt_100 0.17142857142857
scalar BlockchainNetwork.iotNode[69] AverageBadServicesAt_100 0.17142857142857
scalar BlockchainNetwork.iotNode[70] AverageBadServicesAt_100 0.17142857142857
scalar BlockchainNetwork.iotNode[71] AverageBadServicesAt_100 0.17142857142857
scalar BlockchainNetwork.iotNode[72] AverageBadServicesAt_100 0.17142857142857
scalar BlockchainNetwork.iotNode[73] AverageBadServicesAt_100 0.17142857142857
scalar BlockchainNetwork.iotNode[74] AverageBadServicesAt_100 0.17142857142857
scalar BlockchainNetwork.iotNode[75] AverageBadServicesAt_100 0.17142857142857
scalar BlockchainNetwork.iotNode[76] AverageBadServicesAt_100 0.17142857142857
scalar BlockchainNetwork.iotNode[77] AverageBadServicesAt_100 0.17142857142857
scalar BlockchainNetwork.iotNode[78] AverageBadServicesAt_100 0.17142857142857
scalar BlockchainNetwork.iotNode[79] AverageBadServicesAt_100 0.17142857142857
scalar BlockchainNetwork.iotNode[80] AverageBadServicesAt_100 0.17142857142857
scalar BlockchainNetwork.iotNode[81] AverageBadServicesAt_100 0.17142857142857
scalar BlockchainNetwork.iotNode[82] AverageBadServicesAt_100 0.17142857142857
scalar BlockchainNetwork.iotNode[83] AverageBadServicesAt_100 0.17142857142857
scalar BlockchainNetwork.iotNode[84] AverageBadServicesAt_100 0.17142857142857
scalar BlockchainNetwork.iotNode[85] AverageBadServicesAt_100 0.17142857142857
scalar BlockchainNetwork.iotNode[86] AverageBadServicesAt_100 0.17142857142857
scalar BlockchainNetwork.iotNode[87] AverageBadServicesAt_100 0.17142857142857
scalar BlockchainNetwork.iotNode[88] AverageBadServicesAt_100 0.17142857142857
scalar BlockchainNetwork.iotNode[89] AverageBadServicesAt_100 0.17142857142857
scalar BlockchainNetwork.iotNode[90] AverageBadServicesAt_100 0.17142857142857
scalar BlockchainNetwork.iotNode[91] AverageBadServicesAt_100 0.17142857142857
scalar BlockchainNetwork.iotNode[92] AverageBadServicesAt_100 0.17142857142857
scalar BlockchainNetwork.iotNode[93] AverageBadServicesAt_100 0.17142857142857
scalar BlockchainNetwork.iotNode[94] AverageBadServicesAt_100 0.17142857142857
scalar BlockchainNetwork.iotNode[95] AverageBadServicesAt_100 0.17142857142857
scalar BlockchainNetwork.iotNode[96] AverageBadServicesAt_100 0.17142857142857
scalar BlockchainNetwork.iotNode[97] AverageBadServicesAt_100 0.17142857142857
scalar BlockchainNetwork.iotNode[98] AverageBadServicesAt_100 0.17142857142857
scalar BlockchainNetwork.iotNode[99] AverageBadServicesAt_100 0.17142857142857
scalar BlockchainNetwork.iotNode[0] AverageBadServicesAt_110 0.18571428571429
scalar BlockchainNetwork.iotNode[1] AverageBadServicesAt_110 0.18571428571429
scalar BlockchainNetwork.iotNode[2] AverageBadServicesAt_110 0.18571428571429
scalar BlockchainNetwork.iotNode[3] AverageBadServicesAt_110 0.18571428571429
[...]
scalar BlockchainNetwork.iotNode[5] AverageBadServicesAt_1570 0.8
scalar BlockchainNetwork.iotNode[6] AverageBadServicesAt_1570 0.8
scalar BlockchainNetwork.iotNode[7] AverageBadServicesAt_1570 0.8
scalar BlockchainNetwork.iotNode[8] AverageBadServicesAt_1570 0.8
scalar BlockchainNetwork.iotNode[9] AverageBadServicesAt_1570 0.8
scalar BlockchainNetwork.iotNode[10] AverageBadServicesAt_1570 0.8
scalar BlockchainNetwork.iotNode[11] AverageBadServicesAt_1570 0.8
scalar BlockchainNetwork.iotNode[12] AverageBadServicesAt_1570 0.8
scalar BlockchainNetwork.iotNode[13] AverageBadServicesAt_1570 0.8
scalar BlockchainNetwork.iotNode[14] AverageBadServicesAt_1570 0.8
scalar BlockchainNetwork.iotNode[15] AverageBadServicesAt_1570 0.8
scalar BlockchainNetwork.iotNode[16] AverageBadServicesAt_1570 0.8
scalar BlockchainNetwork.iotNode[17] AverageBadServicesAt_1570 0.8
scalar BlockchainNetwork.iotNode[18] AverageBadServicesAt_1570 0.8
scalar BlockchainNetwork.iotNode[19] AverageBadServicesAt_1570 0.8
scalar BlockchainNetwork.iotNode[20] AverageBadServicesAt_1570 0.8
scalar BlockchainNetwork.iotNode[21] AverageBadServicesAt_1570 0.8
scalar BlockchainNetwork.iotNode[22] AverageBadServicesAt_1570 0.8
scalar BlockchainNetwork.iotNode[23] AverageBadServicesAt_1570 0.8
scalar BlockchainNetwork.iotNode[24] AverageBadServicesAt_1570 0.8
scalar BlockchainNetwork.iotNode[25] AverageBadServicesAt_1570 0.8
scalar BlockchainNetwork.iotNode[26] AverageBadServicesAt_1570 0.8
scalar BlockchainNetwork.iotNode[27] AverageBadServicesAt_1570 0.8
scalar BlockchainNetwork.iotNode[28] AverageBadServicesAt_1570 0.8
scalar BlockchainNetwork.iotNode[29] AverageBadServicesAt_1570 0.8
scalar BlockchainNetwork.iotNode[30] AverageBadServicesAt_1570 0.8
scalar BlockchainNetwork.iotNode[31] AverageBadServicesAt_1570 0.8
scalar BlockchainNetwork.iotNode[32] AverageBadServicesAt_1570 0.8
scalar BlockchainNetwork.iotNode[33] AverageBadServicesAt_1570 0.8
scalar BlockchainNetwork.iotNode[34] AverageBadServicesAt_1570 0.8
scalar BlockchainNetwork.iotNode[35] AverageBadServicesAt_1570 0.8
scalar BlockchainNetwork.iotNode[36] AverageBadServicesAt_1570 0.8
scalar BlockchainNetwork.iotNode[37] AverageBadServicesAt_1570 0.8
scalar BlockchainNetwork.iotNode[38] AverageBadServicesAt_1570 0.8
scalar BlockchainNetwork.iotNode[39] AverageBadServicesAt_1570 0.8
scalar BlockchainNetwork.iotNode[40] AverageBadServicesAt_1570 0.8
scalar BlockchainNetwork.iotNode[41] AverageBadServicesAt_1570 0.8
scalar BlockchainNetwork.iotNode[42] AverageBadServicesAt_1570 0.8
scalar BlockchainNetwork.iotNode[43] AverageBadServicesAt_1570 0.8
scalar BlockchainNetwork.iotNode[44] AverageBadServicesAt_1570 0.8
scalar BlockchainNetwork.iotNode[45] AverageBadServicesAt_1570 0.8
scalar BlockchainNetwork.iotNode[46] AverageBadServicesAt_1570 0.8
scalar BlockchainNetwork.iotNode[47] AverageBadServicesAt_1570 0.8
scalar BlockchainNetwork.iotNode[48] AverageBadServicesAt_1570 0.8
scalar BlockchainNetwork.iotNode[49] AverageBadServicesAt_1570 0.8
scalar BlockchainNetwork.iotNode[50] AverageBadServicesAt_1570 0.8
scalar BlockchainNetwork.iotNode[51] AverageBadServicesAt_1570 0.8
scalar BlockchainNetwork.iotNode[52] AverageBadServicesAt_1570 0.8
scalar BlockchainNetwork.iotNode[53] AverageBadServicesAt_1570 0.8
scalar BlockchainNetwork.iotNode[54] AverageBadServicesAt_1570 0.8
scalar BlockchainNetwork.iotNode[55] AverageBadServicesAt_1570 0.8
scalar BlockchainNetwork.iotNode[56] AverageBadServicesAt_1570 0.8
scalar BlockchainNetwork.iotNode[57] AverageBadServicesAt_1570 0.8
scalar BlockchainNetwork.iotNode[58] AverageBadServicesAt_1570 0.8
scalar BlockchainNetwork.iotNode[59] AverageBadServicesAt_1570 0.8
scalar BlockchainNetwork.iotNode[60] AverageBadServicesAt_1570 0.8
scalar BlockchainNetwork.iotNode[61] AverageBadServicesAt_1570 0.8
scalar BlockchainNetwork.iotNode[62] AverageBadServicesAt_1570 0.8
scalar BlockchainNetwork.iotNode[63] AverageBadServicesAt_1570 0.8
scalar BlockchainNetwork.iotNode[64] AverageBadServicesAt_1570 0.8
scalar BlockchainNetwork.iotNode[65] AverageBadServicesAt_1570 0.8
scalar BlockchainNetwork.iotNode[66] AverageBadServicesAt_1570 0.8
scalar BlockchainNetwork.iotNode[67] AverageBadServicesAt_1570 0.8
scalar BlockchainNetwork.iotNode[68] AverageBadServicesAt_1570 0.8
scalar BlockchainNetwork.iotNode[69] AverageBadServicesAt_1570 0.8
scalar BlockchainNetwork.iotNode[70] AverageBadServicesAt_1570 0.8
scalar BlockchainNetwork.iotNode[71] AverageBadServicesAt_1570 0.8
scalar BlockchainNetwork.iotNode[72] AverageBadServicesAt_1570 0.8
scalar BlockchainNetwork.iotNode[73] AverageBadServicesAt_1570 0.8
scalar BlockchainNetwork.iotNode[74] AverageBadServicesAt_1570 0.8
scalar BlockchainNetwork.iotNode[75] AverageBadServicesAt_1570 0.8
scalar BlockchainNetwork.iotNode[76] AverageBadServicesAt_1570 0.8
scalar BlockchainNetwork.iotNode[77] AverageBadServicesAt_1570 0.8
scalar BlockchainNetwork.iotNode[78] AverageBadServicesAt_1570 0.8
scalar BlockchainNetwork.iotNode[79] AverageBadServicesAt_1570 0.8
scalar BlockchainNetwork.iotNode[80] AverageBadServicesAt_1570 0.8
scalar BlockchainNetwork.iotNode[81] AverageBadServicesAt_1570 0.8
scalar BlockchainNetwork.iotNode[82] AverageBadServicesAt_1570 0.8
scalar BlockchainNetwork.iotNode[83] AverageBadServicesAt_1570 0.8
scalar BlockchainNetwork.iotNode[84] AverageBadServicesAt_1570 0.8
scalar BlockchainNetwork.iotNode[85] AverageBadServicesAt_1570 0.8
scalar BlockchainNetwork.iotNode[86] AverageBadServicesAt_1570 0.8
scalar BlockchainNetwork.iotNode[87] AverageBadServicesAt_1570 0.8
scalar BlockchainNetwork.iotNode[88] AverageBadServicesAt_1570 0.8
scalar BlockchainNetwork.iotNode[89] AverageBadServicesAt_1570 0.8
scalar BlockchainNetwork.iotNode[90] AverageBadServicesAt_1570 0.8
scalar BlockchainNetwork.iotNode[91] AverageBadServicesAt_1570 0.8
scalar BlockchainNetwork.iotNode[92] AverageBadServicesAt_1570 0.8
scalar BlockchainNetwork.iotNode[93] AverageBadServicesAt_1570 0.8
scalar BlockchainNetwork.iotNode[94] AverageBadServicesAt_1570 0.8
scalar BlockchainNetwork.iotNode[95] AverageBadServicesAt_1570 0.8
scalar BlockchainNetwork.iotNode[96] AverageBadServicesAt_1570 0.8
scalar BlockchainNetwork.iotNode[97] AverageBadServicesAt_1570 0.8
scalar BlockchainNetwork.iotNode[98] AverageBadServicesAt_1570 0.8
scalar BlockchainNetwork.iotNode[99] AverageBadServicesAt_1570 0.8
scalar BlockchainNetwork.iotNode[0] AverageBadServicesAt_1580 0.81428571428571
scalar BlockchainNetwork.iotNode[1] AverageBadServicesAt_1580 0.81428571428571
scalar BlockchainNetwork.iotNode[2] AverageBadServicesAt_1580 0.81428571428571
scalar BlockchainNetwork.iotNode[3] AverageBadServicesAt_1580 0.81428571428571
scalar BlockchainNetwork.iotNode[4] AverageBadServicesAt_1580 0.81428571428571
scalar BlockchainNetwork.iotNode[5] AverageBadServicesAt_1580 0.81428571428571
scalar BlockchainNetwork.iotNode[6] AverageBadServicesAt_1580 0.81428571428571
scalar BlockchainNetwork.iotNode[7] AverageBadServicesAt_1580 0.81428571428571
scalar BlockchainNetwork.iotNode[8] AverageBadServicesAt_1580 0.81428571428571
scalar BlockchainNetwork.iotNode[9] AverageBadServicesAt_1580 0.81428571428571
scalar BlockchainNetwork.iotNode[10] AverageBadServicesAt_1580 0.81428571428571
scalar BlockchainNetwork.iotNode[11] AverageBadServicesAt_1580 0.81428571428571
scalar BlockchainNetwork.iotNode[12] AverageBadServicesAt_1580 0.81428571428571
scalar BlockchainNetwork.iotNode[13] AverageBadServicesAt_1580 0.81428571428571
scalar BlockchainNetwork.iotNode[14] AverageBadServicesAt_1580 0.81428571428571
scalar BlockchainNetwork.iotNode[15] AverageBadServicesAt_1580 0.81428571428571
scalar BlockchainNetwork.iotNode[16] AverageBadServicesAt_1580 0.81428571428571
scalar BlockchainNetwork.iotNode[17] AverageBadServicesAt_1580 0.81428571428571
scalar BlockchainNetwork.iotNode[18] AverageBadServicesAt_1580 0.81428571428571
scalar BlockchainNetwork.iotNode[19] AverageBadServicesAt_1580 0.81428571428571
scalar BlockchainNetwork.iotNode[20] AverageBadServicesAt_1580 0.81428571428571
scalar BlockchainNetwork.iotNode[21] AverageBadServicesAt_1580 0.81428571428571
scalar BlockchainNetwork.iotNode[22] AverageBadServicesAt_1580 0.81428571428571
scalar BlockchainNetwork.iotNode[23] AverageBadServicesAt_1580 0.81428571428571
scalar BlockchainNetwork.iotNode[24] AverageBadServicesAt_1580 0.81428571428571
scalar BlockchainNetwork.iotNode[25] AverageBadServicesAt_1580 0.81428571428571
scalar BlockchainNetwork.iotNode[26] AverageBadServicesAt_1580 0.81428571428571
scalar BlockchainNetwork.iotNode[27] AverageBadServicesAt_1580 0.81428571428571
scalar BlockchainNetwork.iotNode[28] AverageBadServicesAt_1580 0.81428571428571
scalar BlockchainNetwork.iotNode[29] AverageBadServicesAt_1580 0.81428571428571
scalar BlockchainNetwork.iotNode[30] AverageBadServicesAt_1580 0.81428571428571
scalar BlockchainNetwork.iotNode[31] AverageBadServicesAt_1580 0.81428571428571
scalar BlockchainNetwork.iotNode[32] AverageBadServicesAt_1580 0.81428571428571
scalar BlockchainNetwork.iotNode[33] AverageBadServicesAt_1580 0.81428571428571
scalar BlockchainNetwork.iotNode[34] AverageBadServicesAt_1580 0.81428571428571
scalar BlockchainNetwork.iotNode[35] AverageBadServicesAt_1580 0.81428571428571
scalar BlockchainNetwork.iotNode[36] AverageBadServicesAt_1580 0.81428571428571
scalar BlockchainNetwork.iotNode[37] AverageBadServicesAt_1580 0.81428571428571
scalar BlockchainNetwork.iotNode[38] AverageBadServicesAt_1580 0.81428571428571
scalar BlockchainNetwork.iotNode[39] AverageBadServicesAt_1580 0.81428571428571
scalar BlockchainNetwork.iotNode[40] AverageBadServicesAt_1580 0.81428571428571
scalar BlockchainNetwork.iotNode[41] AverageBadServicesAt_1580 0.81428571428571
scalar BlockchainNetwork.iotNode[42] AverageBadServicesAt_1580 0.81428571428571
scalar BlockchainNetwork.iotNode[43] AverageBadServicesAt_1580 0.81428571428571
scalar BlockchainNetwork.iotNode[44] AverageBadServicesAt_1580 0.81428571428571
scalar BlockchainNetwork.iotNode[45] AverageBadServicesAt_1580 0.81428571428571
scalar BlockchainNetwork.iotNode[46] AverageBadServicesAt_1580 0.81428571428571
scalar BlockchainNetwork.iotNode[47] AverageBadServicesAt_1580 0.81428571428571
scalar BlockchainNetwork.iotNode[48] AverageBadServicesAt_1580 0.81428571428571
scalar BlockchainNetwork.iotNode[49] AverageBadServicesAt_1580 0.81428571428571
scalar BlockchainNetwork.iotNode[50] AverageBadServicesAt_1580 0.81428571428571
scalar BlockchainNetwork.iotNode[51] AverageBadServicesAt_1580 0.81428571428571
scalar BlockchainNetwork.iotNode[52] AverageBadServicesAt_1580 0.81428571428571
scalar BlockchainNetwork.iotNode[53] AverageBadServicesAt_1580 0.81428571428571
scalar BlockchainNetwork.iotNode[54] AverageBadServicesAt_1580 0.81428571428571
scalar BlockchainNetwork.iotNode[55] AverageBadServicesAt_1580 0.81428571428571
scalar BlockchainNetwork.iotNode[56] AverageBadServicesAt_1580 0.81428571428571
scalar BlockchainNetwork.iotNode[57] AverageBadServicesAt_1580 0.81428571428571
scalar BlockchainNetwork.iotNode[58] AverageBadServicesAt_1580 0.81428571428571
scalar BlockchainNetwork.iotNode[59] AverageBadServicesAt_1580 0.81428571428571
scalar BlockchainNetwork.iotNode[60] AverageBadServicesAt_1580 0.81428571428571
scalar BlockchainNetwork.iotNode[61] AverageBadServicesAt_1580 0.81428571428571
scalar BlockchainNetwork.iotNode[62] AverageBadServicesAt_1580 0.81428571428571
scalar BlockchainNetwork.iotNode[63] AverageBadServicesAt_1580 0.81428571428571
scalar BlockchainNetwork.iotNode[64] AverageBadServicesAt_1580 0.81428571428571
scalar BlockchainNetwork.iotNode[65] AverageBadServicesAt_1580 0.81428571428571
scalar BlockchainNetwork.iotNode[66] AverageBadServicesAt_1580 0.81428571428571
scalar BlockchainNetwork.iotNode[67] AverageBadServicesAt_1580 0.81428571428571
scalar BlockchainNetwork.iotNode[68] AverageBadServicesAt_1580 0.81428571428571
scalar BlockchainNetwork.iotNode[69] AverageBadServicesAt_1580 0.81428571428571
scalar BlockchainNetwork.iotNode[70] AverageBadServicesAt_1580 0.81428571428571
scalar BlockchainNetwork.iotNode[71] AverageBadServicesAt_1580 0.81428571428571
scalar BlockchainNetwork.iotNode[72] AverageBadServicesAt_1580 0.81428571428571
scalar BlockchainNetwork.iotNode[73] AverageBadServicesAt_1580 0.81428571428571
scalar BlockchainNetwork.iotNode[74] AverageBadServicesAt_1580 0.81428571428571
scalar BlockchainNetwork.iotNode[75] AverageBadServicesAt_1580 0.81428571428571
scalar BlockchainNetwork.iotNode[76] AverageBadServicesAt_1580 0.81428571428571
scalar BlockchainNetwork.iotNode[77] AverageBadServicesAt_1580 0.81428571428571
scalar BlockchainNetwork.iotNode[78] AverageBadServicesAt_1580 0.81428571428571
scalar BlockchainNetwork.iotNode[79] AverageBadServicesAt_1580 0.81428571428571
scalar BlockchainNetwork.iotNode[80] AverageBadServicesAt_1580 0.81428571428571
scalar BlockchainNetwork.iotNode[81] AverageBadServicesAt_1580 0.81428571428571
scalar BlockchainNetwork.iotNode[82] AverageBadServicesAt_1580 0.81428571428571
scalar BlockchainNetwork.iotNode[83] AverageBadServicesAt_1580 0.81428571428571
scalar BlockchainNetwork.iotNode[84] AverageBadServicesAt_1580 0.81428571428571
scalar BlockchainNetwork.iotNode[85] AverageBadServicesAt_1580 0.81428571428571
scalar BlockchainNetwork.iotNode[86] AverageBadServicesAt_1580 0.81428571428571
scalar BlockchainNetwork.iotNode[87] AverageBadServicesAt_1580 0.81428571428571
scalar BlockchainNetwork.iotNode[88] AverageBadServicesAt_1580 0.81428571428571
scalar BlockchainNetwork.iotNode[89] AverageBadServicesAt_1580 0.81428571428571
scalar BlockchainNetwork.iotNode[90] AverageBadServicesAt_1580 0.81428571428571
scalar BlockchainNetwork.iotNode[91] AverageBadServicesAt_1580 0.81428571428571
scalar BlockchainNetwork.iotNode[92] AverageBadServicesAt_1580 0.81428571428571
scalar BlockchainNetwork.iotNode[93] AverageBadServicesAt_1580 0.81428571428571
scalar BlockchainNetwork.iotNode[94] AverageBadServicesAt_1580 0.81428571428571
scalar BlockchainNetwork.iotNode[95] AverageBadServicesAt_1580 0.81428571428571
scalar BlockchainNetwork.iotNode[96] AverageBadServicesAt_1580 0.81428571428571
scalar BlockchainNetwork.iotNode[97] AverageBadServicesAt_1580 0.81428571428571
scalar BlockchainNetwork.iotNode[98] AverageBadServicesAt_1580 0.81428571428571
scalar BlockchainNetwork.iotNode[99] AverageBadServicesAt_1580 0.81428571428571
scalar BlockchainNetwork.iotNode[0] AverageBadServicesAt_1590 0.82857142857143
scalar BlockchainNetwork.iotNode[1] AverageBadServicesAt_1590 0.82857142857143
scalar BlockchainNetwork.iotNode[2] AverageBadServicesAt_1590 0.82857142857143
scalar BlockchainNetwork.iotNode[3] AverageBadServicesAt_1590 0.82857142857143
scalar BlockchainNetwork.iotNode[4] AverageBadServicesAt_1590 0.82857142857143
scalar BlockchainNetwork.iotNode[5] AverageBadServicesAt_1590 0.82857142857143
scalar BlockchainNetwork.iotNode[6] AverageBadServicesAt_1590 0.82857142857143
scalar BlockchainNetwork.iotNode[7] AverageBadServicesAt_1590 0.82857142857143
scalar BlockchainNetwork.iotNode[8] AverageBadServicesAt_1590 0.82857142857143
scalar BlockchainNetwork.iotNode[9] AverageBadServicesAt_1590 0.82857142857143
scalar BlockchainNetwork.iotNode[10] AverageBadServicesAt_1590 0.82857142857143
scalar BlockchainNetwork.iotNode[11] AverageBadServicesAt_1590 0.82857142857143
scalar BlockchainNetwork.iotNode[12] AverageBadServicesAt_1590 0.82857142857143
scalar BlockchainNetwork.iotNode[13] AverageBadServicesAt_1590 0.82857142857143
scalar BlockchainNetwork.iotNode[14] AverageBadServicesAt_1590 0.82857142857143
scalar BlockchainNetwork.iotNode[15] AverageBadServicesAt_1590 0.82857142857143
scalar BlockchainNetwork.iotNode[16] AverageBadServicesAt_1590 0.82857142857143
scalar BlockchainNetwork.iotNode[17] AverageBadServicesAt_1590 0.82857142857143
scalar BlockchainNetwork.iotNode[18] AverageBadServicesAt_1590 0.82857142857143
scalar BlockchainNetwork.iotNode[19] AverageBadServicesAt_1590 0.82857142857143
scalar BlockchainNetwork.iotNode[20] AverageBadServicesAt_1590 0.82857142857143
scalar BlockchainNetwork.iotNode[21] AverageBadServicesAt_1590 0.82857142857143
scalar BlockchainNetwork.iotNode[22] AverageBadServicesAt_1590 0.82857142857143
scalar BlockchainNetwork.iotNode[23] AverageBadServicesAt_1590 0.82857142857143
scalar BlockchainNetwork.iotNode[24] AverageBadServicesAt_1590 0.82857142857143
scalar BlockchainNetwork.iotNode[25] AverageBadServicesAt_1590 0.82857142857143
scalar BlockchainNetwork.iotNode[26] AverageBadServicesAt_1590 0.82857142857143
scalar BlockchainNetwork.iotNode[27] AverageBadServicesAt_1590 0.82857142857143
scalar BlockchainNetwork.iotNode[28] AverageBadServicesAt_1590 0.82857142857143
scalar BlockchainNetwork.iotNode[29] AverageBadServicesAt_1590 0.82857142857143
scalar BlockchainNetwork.iotNode[30] AverageBadServicesAt_1590 0.82857142857143
scalar BlockchainNetwork.iotNode[31] AverageBadServicesAt_1590 0.82857142857143
scalar BlockchainNetwork.iotNode[32] AverageBadServicesAt_1590 0.82857142857143
scalar BlockchainNetwork.iotNode[33] AverageBadServicesAt_1590 0.82857142857143
scalar BlockchainNetwork.iotNode[34] AverageBadServicesAt_1590 0.82857142857143
scalar BlockchainNetwork.iotNode[35] AverageBadServicesAt_1590 0.82857142857143
scalar BlockchainNetwork.iotNode[36] AverageBadServicesAt_1590 0.82857142857143
scalar BlockchainNetwork.iotNode[37] AverageBadServicesAt_1590 0.82857142857143
scalar BlockchainNetwork.iotNode[38] AverageBadServicesAt_1590 0.82857142857143
scalar BlockchainNetwork.iotNode[39] AverageBadServicesAt_1590 0.82857142857143
scalar BlockchainNetwork.iotNode[40] AverageBadServicesAt_1590 0.82857142857143
scalar BlockchainNetwork.iotNode[41] AverageBadServicesAt_1590 0.82857142857143
scalar BlockchainNetwork.iotNode[42] AverageBadServicesAt_1590 0.82857142857143
scalar BlockchainNetwork.iotNode[43] AverageBadServicesAt_1590 0.82857142857143
scalar BlockchainNetwork.iotNode[44] AverageBadServicesAt_1590 0.82857142857143
scalar BlockchainNetwork.iotNode[45] AverageBadServicesAt_1590 0.82857142857143
scalar BlockchainNetwork.iotNode[46] AverageBadServicesAt_1590 0.82857142857143
scalar BlockchainNetwork.iotNode[47] AverageBadServicesAt_1590 0.82857142857143
scalar BlockchainNetwork.iotNode[48] AverageBadServicesAt_1590 0.82857142857143
scalar BlockchainNetwork.iotNode[49] AverageBadServicesAt_1590 0.82857142857143
scalar BlockchainNetwork.iotNode[50] AverageBadServicesAt_1590 0.82857142857143
scalar BlockchainNetwork.iotNode[51] AverageBadServicesAt_1590 0.82857142857143
scalar BlockchainNetwork.iotNode[52] AverageBadServicesAt_1590 0.82857142857143
scalar BlockchainNetwork.iotNode[53] AverageBadServicesAt_1590 0.82857142857143
scalar BlockchainNetwork.iotNode[54] AverageBadServicesAt_1590 0.82857142857143
scalar BlockchainNetwork.iotNode[55] AverageBadServicesAt_1590 0.82857142857143
scalar BlockchainNetwork.iotNode[56] AverageBadServicesAt_1590 0.82857142857143
scalar BlockchainNetwork.iotNode[57] AverageBadServicesAt_1590 0.82857142857143
scalar BlockchainNetwork.iotNode[58] AverageBadServicesAt_1590 0.82857142857143
scalar BlockchainNetwork.iotNode[59] AverageBadServicesAt_1590 0.82857142857143
scalar BlockchainNetwork.iotNode[60] AverageBadServicesAt_1590 0.82857142857143
scalar BlockchainNetwork.iotNode[61] AverageBadServicesAt_1590 0.82857142857143
scalar BlockchainNetwork.iotNode[62] AverageBadServicesAt_1590 0.82857142857143
scalar BlockchainNetwork.iotNode[63] AverageBadServicesAt_1590 0.82857142857143
scalar BlockchainNetwork.iotNode[64] AverageBadServicesAt_1590 0.82857142857143
scalar BlockchainNetwork.iotNode[65] AverageBadServicesAt_1590 0.82857142857143
scalar BlockchainNetwork.iotNode[66] AverageBadServicesAt_1590