version 3
run General-0-20250805-21:44:27-153170
attr configname General
attr datetime 20250805-21:44:27
attr datetimef 20250805-214427
attr experiment General
attr inifile omnetpp.ini
attr iterationvars ""
attr iterationvarsd ""
attr iterationvarsf ""
attr measurement ""
attr network BlockchainNetwork
attr processid 153170
attr repetition 0
attr replication #0
attr resultdir results
attr runnumber 0
attr seedset 42
config network BlockchainNetwork
config *.iotNode*.inoutGateSize 10
config sim-time-limit 2000s
config *.iotNode*.serviceInterval "uniform(1, 5)"
config *.numNodes 10
config **.maliciousNodePercentage 0.3
config seed-set 42

scalar BlockchainNetwork.iotNode[0] AverageBadServicesAt_10 0.14285714285714
scalar BlockchainNetwork.iotNode[1] AverageBadServicesAt_10 0.14285714285714
scalar BlockchainNetwork.iotNode[2] AverageBadServicesAt_10 0.14285714285714
scalar BlockchainNetwork.iotNode[3] AverageBadServicesAt_10 0.14285714285714
scalar BlockchainNetwork.iotNode[4] AverageBadServicesAt_10 0.14285714285714
scalar BlockchainNetwork.iotNode[5] AverageBadServicesAt_10 0.14285714285714
scalar BlockchainNetwork.iotNode[6] AverageBadServicesAt_10 0.14285714285714
scalar BlockchainNetwork.iotNode[7] AverageBadServicesAt_10 0.14285714285714
scalar BlockchainNetwork.iotNode[8] AverageBadServicesAt_10 0.14285714285714
scalar BlockchainNetwork.iotNode[9] AverageBadServicesAt_10 0.14285714285714
scalar BlockchainNetwork.iotNode[0] AverageBadServicesAt_20 0.42857142857143
scalar BlockchainNetwork.iotNode[1] AverageBadServicesAt_20 0.42857142857143
scalar BlockchainNetwork.iotNode[2] AverageBadServicesAt_20 0.42857142857143
scalar BlockchainNetwork.iotNode[3] AverageBadServicesAt_20 0.42857142857143
scalar BlockchainNetwork.iotNode[4] AverageBadServicesAt_20 0.42857142857143
scalar BlockchainNetwork.iotNode[5] AverageBadServicesAt_20 0.42857142857143
scalar BlockchainNetwork.iotNode[6] AverageBadServicesAt_20 0.42857142857143
scalar BlockchainNetwork.iotNode[7] AverageBadServicesAt_20 0.42857142857143
scalar BlockchainNetwork.iotNode[8] AverageBadServicesAt_20 0.42857142857143
scalar BlockchainNetwork.iotNode[9] AverageBadServicesAt_20 0.42857142857143
scalar BlockchainNetwork.iotNode[0] AverageBadServicesAt_30 1.1428571428571
scalar BlockchainNetwork.iotNode[1] AverageBadServicesAt_30 1.1428571428571
scalar BlockchainNetwork.iotNode[2] AverageBadServicesAt_30 1.1428571428571
scalar BlockchainNetwork.iotNode[3] AverageBadServicesAt_30 1.1428571428571
scalar BlockchainNetwork.iotNode[4] AverageBadServicesAt_30 1.1428571428571
scalar BlockchainNetwork.iotNode[5] AverageBadServicesAt_30 1.1428571428571
scalar BlockchainNetwork.iotNode[6] AverageBadServicesAt_30 1.1428571428571
scalar BlockchainNetwork.iotNode[7] AverageBadServicesAt_30 1.1428571428571
scalar BlockchainNetwork.iotNode[8] AverageBadServicesAt_30 1.1428571428571
scalar BlockchainNetwork.iotNode[9] AverageBadServicesAt_30 1.1428571428571
scalar BlockchainNetwork.iotNode[0] AverageBadServicesAt_40 1.2857142857143
scalar BlockchainNetwork.iotNode[1] AverageBadServicesAt_40 1.2857142857143
scalar BlockchainNetwork.iotNode[2] AverageBadServicesAt_40 1.2857142857143
scalar BlockchainNetwork.iotNode[3] AverageBadServicesAt_40 1.2857142857143
scalar BlockchainNetwork.iotNode[4] AverageBadServicesAt_40 1.2857142857143
scalar BlockchainNetwork.iotNode[5] AverageBadServicesAt_40 1.2857142857143
scalar BlockchainNetwork.iotNode[6] AverageBadServicesAt_40 1.2857142857143
scalar BlockchainNetwork.iotNode[7] AverageBadServicesAt_40 1.2857142857143
scalar BlockchainNetwork.iotNode[8] AverageBadServicesAt_40 1.2857142857143
scalar BlockchainNetwork.iotNode[9] AverageBadServicesAt_40 1.2857142857143
scalar BlockchainNetwork.iotNode[0] AverageBadServicesAt_50 1.5714285714286
scalar BlockchainNetwork.iotNode[1] AverageBadServicesAt_50 1.5714285714286
scalar BlockchainNetwork.iotNode[2] AverageBadServicesAt_50 1.5714285714286
scalar BlockchainNetwork.iotNode[3] AverageBadServicesAt_50 1.5714285714286
scalar BlockchainNetwork.iotNode[4] AverageBadServicesAt_50 1.5714285714286
scalar BlockchainNetwork.iotNode[5] AverageBadServicesAt_50 1.5714285714286
scalar BlockchainNetwork.iotNode[6] AverageBadServicesAt_50 1.5714285714286
scalar BlockchainNetwork.iotNode[7] AverageBadServicesAt_50 1.5714285714286
scalar BlockchainNetwork.iotNode[8] AverageBadServicesAt_50 1.5714285714286
scalar BlockchainNetwork.iotNode[9] AverageBadServicesAt_50 1.5714285714286
scalar BlockchainNetwork.iotNode[0] AverageBadServicesAt_60 1.8571428571429
scalar BlockchainNetwork.iotNode[1] AverageBadServicesAt_60 1.8571428571429
scalar BlockchainNetwork.iotNode[2] AverageBadServicesAt_60 1.8571428571429
scalar BlockchainNetwork.iotNode[3] AverageBadServicesAt_60 1.8571428571429
scalar BlockchainNetwork.iotNode[4] AverageBadServicesAt_60 1.8571428571429
scalar BlockchainNetwork.iotNode[5] AverageBadServicesAt_60 1.8571428571429
scalar BlockchainNetwork.iotNode[6] AverageBadServicesAt_60 1.8571428571429
scalar BlockchainNetwork.iotNode[7] AverageBadServicesAt_60 1.8571428571429
scalar BlockchainNetwork.iotNode[8] AverageBadServicesAt_60 1.8571428571429
scalar BlockchainNetwork.iotNode[9] AverageBadServicesAt_60 1.8571428571429
scalar BlockchainNetwork.iotNode[0] AverageBadServicesAt_70 1.8571428571429
scalar BlockchainNetwork.iotNode[1] AverageBadServicesAt_70 1.8571428571429
scalar BlockchainNetwork.iotNode[2] AverageBadServicesAt_70 1.8571428571429
scalar BlockchainNetwork.iotNode[3] AverageBadServicesAt_70 1.8571428571429
scalar BlockchainNetwork.iotNode[4] AverageBadServicesAt_70 1.8571428571429
scalar BlockchainNetwork.iotNode[5] AverageBadServicesAt_70 1.8571428571429
scalar BlockchainNetwork.iotNode[6] AverageBadServicesAt_70 1.8571428571429
scalar BlockchainNetwork.iotNode[7] AverageBadServicesAt_70 1.8571428571429
scalar BlockchainNetwork.iotNode[8] AverageBadServicesAt_70 1.8571428571429
scalar BlockchainNetwork.iotNode[9] AverageBadServicesAt_70 1.8571428571429
scalar BlockchainNetwork.iotNode[0] AverageBadServicesAt_80 1.8571428571429
scalar BlockchainNetwork.iotNode[1] AverageBadServicesAt_80 1.8571428571429
scalar BlockchainNetwork.iotNode[2] AverageBadServicesAt_80 1.8571428571429
scalar BlockchainNetwork.iotNode[3] AverageBadServicesAt_80 1.8571428571429
scalar BlockchainNetwork.iotNode[4] AverageBadServicesAt_80 1.8571428571429
scalar BlockchainNetwork.iotNode[5] AverageBadServicesAt_80 1.8571428571429
scalar BlockchainNetwork.iotNode[6] AverageBadServicesAt_80 1.8571428571429
scalar BlockchainNetwork.iotNode[7] AverageBadServicesAt_80 1.8571428571429
scalar BlockchainNetwork.iotNode[8] AverageBadServicesAt_80 1.8571428571429
scalar BlockchainNetwork.iotNode[9] AverageBadServicesAt_80 1.8571428571429
scalar BlockchainNetwork.iotNode[0] AverageBadServicesAt_90 1.8571428571429
scalar BlockchainNetwork.iotNode[1] AverageBadServicesAt_90 1.8571428571429
scalar BlockchainNetwork.iotNode[2] AverageBadServicesAt_90 1.8571428571429
scalar BlockchainNetwork.iotNode[3] AverageBadServicesAt_90 1.8571428571429
scalar BlockchainNetwork.iotNode[4] AverageBadServicesAt_90 1.8571428571429
scalar BlockchainNetwork.iotNode[5] AverageBadServicesAt_90 1.8571428571429
scalar BlockchainNetwork.iotNode[6] AverageBadServicesAt_90 1.8571428571429
scalar BlockchainNetwork.iotNode[7] AverageBadServicesAt_90 1.8571428571429
scalar BlockchainNetwork.iotNode[8] AverageBadServicesAt_90 1.8571428571429
scalar BlockchainNetwork.iotNode[9] AverageBadServicesAt_90 1.8571428571429
scalar BlockchainNetwork.iotNode[0] AverageBadServicesAt_100 1.8571428571429
scalar BlockchainNetwork.iotNode[1] AverageBadServicesAt_100 1.8571428571429
scalar BlockchainNetwork.iotNode[2] AverageBadServicesAt_100 1.8571428571429
scalar BlockchainNetwork.iotNode[3] AverageBadServicesAt_100 1.8571428571429
scalar BlockchainNetwork.iotNode[4] AverageBadServicesAt_100 1.8571428571429
scalar BlockchainNetwork.iotNode[5] AverageBadServicesAt_100 1.8571428571429
scalar BlockchainNetwork.iotNode[6] AverageBadServicesAt_100 1.8571428571429
scalar BlockchainNetwork.iotNode[7] AverageBadServicesAt_100 1.8571428571429
scalar BlockchainNetwork.iotNode[8] AverageBadServicesAt_100 1.8571428571429
scalar BlockchainNetwork.iotNode[9] AverageBadServicesAt_100 1.8571428571429
scalar BlockchainNetwork.iotNode[0] AverageBadServicesAt_110 1.8571428571429
scalar BlockchainNetwork.iotNode[1] AverageBadServicesAt_110 1.8571428571429
scalar BlockchainNetwork.iotNode[2] AverageBadServicesAt_110 1.8571428571429
scalar BlockchainNetwork.iotNode[3] AverageBadServicesAt_110 1.8571428571429
scalar BlockchainNetwork.iotNode[4] AverageBadServicesAt_110 1.8571428571429
scalar BlockchainNetwork.iotNode[5] AverageBadServicesAt_110 1.8571428571429
scalar BlockchainNetwork.iotNode[6] AverageBadServicesAt_110 1.8571428571429
scalar BlockchainNetwork.iotNode[7] AverageBadServicesAt_110 1.8571428571429
scalar BlockchainNetwork.iotNode[8] AverageBadServicesAt_110 1.8571428571429
scalar BlockchainNetwork.iotNode[9] AverageBadServicesAt_110 1.8571428571429
scalar BlockchainNetwork.iotNode[0] AverageBadServicesAt_120 1.8571428571429
scalar BlockchainNetwork.iotNode[1] AverageBadServicesAt_120 1.8571428571429
scalar BlockchainNetwork.iotNode[2] AverageBadServicesAt_120 1.8571428571429
scalar BlockchainNetwork.iotNode[3] AverageBadServicesAt_120 1.8571428571429
scalar BlockchainNetwork.iotNode[4] AverageBadServicesAt_120 1.8571428571429
scalar BlockchainNetwork.iotNode[5] AverageBadServicesAt_120 1.8571428571429
scalar BlockchainNetwork.iotNode[6] AverageBadServicesAt_120 1.8571428571429
scalar BlockchainNetwork.iotNode[7] AverageBadServicesAt_120 1.8571428571429
scalar BlockchainNetwork.iotNode[8] AverageBadServicesAt_120 1.8571428571429
scalar BlockchainNetwork.iotNode[9] AverageBadServicesAt_120 1.8571428571429
scalar BlockchainNetwork.iotNode[0] AverageBadServicesAt_130 1.8571428571429
scalar BlockchainNetwork.iotNode[1] AverageBadServicesAt_130 1.8571428571429
scalar BlockchainNetwork.iotNode[2] AverageBadServicesAt_130 1.8571428571429
scalar BlockchainNetwork.iotNode[3] AverageBadServicesAt_130 1.8571428571429
scalar BlockchainNetwork.iotNode[4] AverageBadServicesAt_130 1.8571428571429
scalar BlockchainNetwork.iotNode[5] AverageBadServicesAt_130 1.8571428571429
scalar BlockchainNetwork.iotNode[6] AverageBadServicesAt_130 1.8571428571429
scalar BlockchainNetwork.iotNode[7] AverageBadServicesAt_130 1.8571428571429
scalar BlockchainNetwork.iotNode[8] AverageBadServicesAt_130 1.8571428571429
scalar BlockchainNetwork.iotNode[9] AverageBadServicesAt_130 1.8571428571429
scalar BlockchainNetwork.iotNode[0] AverageBadServicesAt_140 1.8571428571429
scalar BlockchainNetwork.iotNode[1] AverageBadServicesAt_140 1.8571428571429
scalar BlockchainNetwork.iotNode[2] AverageBadServicesAt_140 1.8571428571429
scalar BlockchainNetwork.iotNode[3] AverageBadServicesAt_140 1.8571428571429
scalar BlockchainNetwork.iotNode[4] AverageBadServicesAt_140 1.8571428571429
scalar BlockchainNetwork.iotNode[5] AverageBadServicesAt_140 1.8571428571429
scalar BlockchainNetwork.iotNode[6] AverageBadServicesAt_140 1.8571428571429
scalar BlockchainNetwork.iotNode[7] AverageBadServicesAt_140 1.8571428571429
scalar BlockchainNetwork.iotNode[8] AverageBadServicesAt_140 1.8571428571429
scalar BlockchainNetwork.iotNode[9] AverageBadServicesAt_140 1.8571428571429
scalar BlockchainNetwork.iotNode[0] AverageBadServicesAt_150 1.8571428571429
scalar BlockchainNetwork.iotNode[1] AverageBadServicesAt_150 1.8571428571429
scalar BlockchainNetwork.iotNode[2] AverageBadServicesAt_150 1.8571428571429
scalar BlockchainNetwork.iotNode[3] AverageBadServicesAt_150 1.8571428571429
scalar BlockchainNetwork.iotNode[4] AverageBadServicesAt_150 1.8571428571429
scalar BlockchainNetwork.iotNode[5] AverageBadServicesAt_150 1.8571428571429
scalar BlockchainNetwork.iotNode[6] AverageBadServicesAt_150 1.8571428571429
scalar BlockchainNetwork.iotNode[7] AverageBadServicesAt_150 1.8571428571429
scalar BlockchainNetwork.iotNode[8] AverageBadServicesAt_150 1.8571428571429
scalar BlockchainNetwork.iotNode[9] AverageBadServicesAt_150 1.8571428571429
scalar BlockchainNetwork.iotNode[0] AverageBadServicesAt_160 1.8571428571429
scalar BlockchainNetwork.iotNode[1] AverageBadServicesAt_160 1.8571428571429
scalar BlockchainNetwork.iotNode[2] AverageBadServicesAt_160 1.8571428571429
scalar BlockchainNetwork.iotNode[3] AverageBadServicesAt_160 1.8571428571429
scalar BlockchainNetwork.iotNode[4] AverageBadServicesAt_160 1.8571428571429
scalar BlockchainNetwork.iotNode[5] AverageBadServicesAt_160 1.8571428571429
scalar BlockchainNetwork.iotNode[6] AverageBadServicesAt_160 1.8571428571429
scalar BlockchainNetwork.iotNode[7] AverageBadServicesAt_160 1.8571428571429
scalar BlockchainNetwork.iotNode[8] AverageBadServicesAt_160 1.8571428571429
scalar BlockchainNetwork.iotNode[9] AverageBadServicesAt_160 1.8571428571429
scalar BlockchainNetwork.iotNode[0] AverageBadServicesAt_170 1.8571428571429
scalar BlockchainNetwork.iotNode[1] AverageBadServicesAt_170 1.8571428571429
scalar BlockchainNetwork.iotNode[2] AverageBadServicesAt_170 1.8571428571429
scalar BlockchainNetwork.iotNode[3] AverageBadServicesAt_170 1.8571428571429
scalar BlockchainNetwork.iotNode[4] AverageBadServicesAt_170 1.8571428571429
scalar BlockchainNetwork.iotNode[5] AverageBadServicesAt_170 1.8571428571429
scalar BlockchainNetwork.iotNode[6] AverageBadServicesAt_170 1.8571428571429
scalar BlockchainNetwork.iotNode[7] AverageBadServicesAt_170 1.8571428571429
scalar BlockchainNetwork.iotNode[8] AverageBadServicesAt_170 1.8571428571429
scalar BlockchainNetwork.iotNode[9] AverageBadServicesAt_170 1.8571428571429
scalar BlockchainNetwork.iotNode[0] AverageBadServicesAt_180 1.8571428571429
scalar BlockchainNetwork.iotNode[1] AverageBadServicesAt_180 1.8571428571429
scalar BlockchainNetwork.iotNode[2] AverageBadServicesAt_180 1.8571428571429
scalar BlockchainNetwork.iotNode[3] AverageBadServicesAt_180 1.8571428571429
scalar BlockchainNetwork.iotNode[4] AverageBadServicesAt_180 1.8571428571429
scalar BlockchainNetwork.iotNode[5] AverageBadServicesAt_180 1.8571428571429
scalar BlockchainNetwork.iotNode[6] AverageBadServicesAt_180 1.8571428571429
scalar BlockchainNetwork.iotNode[7] AverageBadServicesAt_180 1.8571428571429
scalar BlockchainNetwork.iotNode[8] AverageBadServicesAt_180 1.8571428571429
scalar BlockchainNetwork.iotNode[9] AverageBadServicesAt_180 1.8571428571429
scalar BlockchainNetwork.iotNode[0] AverageBadServicesAt_190 1.8571428571429
scalar BlockchainNetwork.iotNode[1] AverageBadServicesAt_190 1.8571428571429
scalar BlockchainNetwork.iotNode[2] AverageBadServicesAt_190 1.8571428571429
scalar BlockchainNetwork.iotNode[3] AverageBadServicesAt_190 1.8571428571429
scalar BlockchainNetwork.iotNode[4] AverageBadServicesAt_190 1.8571428571429
scalar BlockchainNetwork.iotNode[5] AverageBadServicesAt_190 1.8571428571429
scalar BlockchainNetwork.iotNode[6] AverageBadServicesAt_190 1.8571428571429
scalar BlockchainNetwork.iotNode[7] AverageBadServicesAt_190 1.8571428571429
scalar BlockchainNetwork.iotNode[8] AverageBadServicesAt_190 1.8571428571429
scalar BlockchainNetwork.iotNode[9] AverageBadServicesAt_190 1.8571428571429
scalar BlockchainNetwork.iotNode[0] AverageBadServicesAt_200 1.8571428571429
scalar BlockchainNetwork.iotNode[1] AverageBadServicesAt_200 1.8571428571429
scalar BlockchainNetwork.iotNode[2] AverageBadServicesAt_200 1.8571428571429
scalar BlockchainNetwork.iotNode[3] AverageBadServicesAt_200 1.8571428571429
scalar BlockchainNetwork.iotNode[4] AverageBadServicesAt_200 1.8571428571429
scalar BlockchainNetwork.iotNode[5] AverageBadServicesAt_200 1.8571428571429
scalar BlockchainNetwork.iotNode[6] AverageBadServicesAt_200 1.8571428571429
scalar BlockchainNetwork.iotNode[7] AverageBadServicesAt_200 1.8571428571429
scalar BlockchainNetwork.iotNode[8] AverageBadServicesAt_200 1.8571428571429
scalar BlockchainNetwork.iotNode[9] AverageBadServicesAt_200 1.8571428571429
scalar BlockchainNetwork.iotNode[0] AverageBadServicesAt_210 1.8571428571429
scalar BlockchainNetwork.iotNode[1] AverageBadServicesAt_210 1.8571428571429
scalar BlockchainNetwork.iotNode[2] AverageBadServicesAt_210 1.8571428571429
scalar BlockchainNetwork.iotNode[3] AverageBadServicesAt_210 1.8571428571429
scalar BlockchainNetwork.iotNode[4] AverageBadServicesAt_210 1.8571428571429
scalar BlockchainNetwork.iotNode[5] AverageBadServicesAt_210 1.8571428571429
scalar BlockchainNetwork.iotNode[6] AverageBadServicesAt_210 1.8571428571429
scalar BlockchainNetwork.iotNode[7] AverageBadServicesAt_210 1.8571428571429
scalar BlockchainNetwork.iotNode[8] AverageBadServicesAt_210 1.8571428571429
scalar BlockchainNetwork.iotNode[9] AverageBadServicesAt_210 1.8571428571429
scalar BlockchainNetwork.iotNode[0] AverageBadServicesAt_220 1.8571428571429
scalar BlockchainNetwork.iotNode[1] AverageBadServicesAt_220 1.8571428571429
scalar BlockchainNetwork.iotNode[2] AverageBadServicesAt_220 1.8571428571429
scalar BlockchainNetwork.iotNode[3] AverageBadServicesAt_220 1.8571428571429
scalar BlockchainNetwork.iotNode[4] AverageBadServicesAt_220 1.8571428571429
scalar BlockchainNetwork.iotNode[5] AverageBadServicesAt_220 1.8571428571429
scalar BlockchainNetwork.iotNode[6] AverageBadServicesAt_220 1.8571428571429
scalar BlockchainNetwork.iotNode[7] AverageBadServicesAt_220 1.8571428571429
scalar BlockchainNetwork.iotNode[8] AverageBadServicesAt_220 1.8571428571429
scalar BlockchainNetwork.iotNode[9] AverageBadServicesAt_220 1.8571428571429
scalar BlockchainNetwork.iotNode[0] AverageBadServicesAt_230 1.8571428571429
scalar BlockchainNetwork.iotNode[1] AverageBadServicesAt_230 1.8571428571429
scalar BlockchainNetwork.iotNode[2] AverageBadServicesAt_230 1.8571428571429
scalar BlockchainNetwork.iotNode[3] AverageBadServicesAt_230 1.8571428571429
scalar BlockchainNetwork.iotNode[4] AverageBadServicesAt_230 1.8571428571429
scalar BlockchainNetwork.iotNode[5] AverageBadServicesAt_230 1.8571428571429
scalar BlockchainNetwork.iotNode[6] AverageBadServicesAt_230 1.8571428571429
scalar BlockchainNetwork.iotNode[7] AverageBadServicesAt_230 1.8571428571429
scalar BlockchainNetwork.iotNode[8] AverageBadServicesAt_230 1.8571428571429
scalar BlockchainNetwork.iotNode[9] AverageBadServicesAt_230 1.8571428571429
scalar BlockchainNetwork.iotNode[0] AverageBadServicesAt_240 1.8571428571429
scalar BlockchainNetwork.iotNode[1] AverageBadServicesAt_240 1.8571428571429
scalar BlockchainNetwork.iotNode[2] AverageBadServicesAt_240 1.8571428571429
scalar BlockchainNetwork.iotNode[3] AverageBadServicesAt_240 1.8571428571429
scalar BlockchainNetwork.iotNode[4] AverageBadServicesAt_240 1.8571428571429
scalar BlockchainNetwork.iotNode[5] AverageBadServicesAt_240 1.8571428571429
scalar BlockchainNetwork.iotNode[6] AverageBadServicesAt_240 1.8571428571429
scalar BlockchainNetwork.iotNode[7] AverageBadServicesAt_240 1.8571428571429
scalar BlockchainNetwork.iotNode[8] AverageBadServicesAt_240 1.8571428571429
scalar BlockchainNetwork.iotNode[9] AverageBadServicesAt_240 1.8571428571429
scalar BlockchainNetwork.iotNode[0] AverageBadServicesAt_250 1.8571428571429
scalar BlockchainNetwork.iotNode[1] AverageBadServicesAt_250 1.8571428571429
scalar BlockchainNetwork.iotNode[2] AverageBadServicesAt_250 1.8571428571429
scalar BlockchainNetwork.iotNode[3] AverageBadServicesAt_250 1.8571428571429
scalar BlockchainNetwork.iotNode[4] AverageBadServicesAt_250 1.8571428571429
scalar BlockchainNetwork.iotNode[5] AverageBadServicesAt_250 1.8571428571429
scalar BlockchainNetwork.iotNode[6] AverageBadServicesAt_250 1.8571428571429
scalar BlockchainNetwork.iotNode[7] AverageBadServicesAt_250 1.8571428571429
scalar BlockchainNetwork.iotNode[8] AverageBadServicesAt_250 1.8571428571429
scalar BlockchainNetwork.iotNode[9] AverageBadServicesAt_250 1.8571428571429
scalar BlockchainNetwork.iotNode[0] AverageBadServicesAt_260 1.8571428571429
scalar BlockchainNetwork.iotNode[1] AverageBadServicesAt_260 1.8571428571429
scalar BlockchainNetwork.iotNode[2] AverageBadServicesAt_260 1.8571428571429
scalar BlockchainNetwork.iotNode[3] AverageBadServicesAt_260 1.8571428571429
scalar BlockchainNetwork.iotNode[4] AverageBadServicesAt_260 1.8571428571429
scalar BlockchainNetwork.iotNode[5] AverageBadServicesAt_260 1.8571428571429
scalar BlockchainNetwork.iotNode[6] AverageBadServicesAt_260 1.8571428571429
scalar BlockchainNetwork.iotNode[7] AverageBadServicesAt_260 1.8571428571429
scalar BlockchainNetwork.iotNode[8] AverageBadServicesAt_260 1.8571428571429
scalar BlockchainNetwork.iotNode[9] AverageBadServicesAt_260 1.8571428571429
scalar BlockchainNetwork.iotNode[0] AverageBadServicesAt_270 1.8571428571429
scalar BlockchainNetwork.iotNode[1] AverageBadServicesAt_270 1.8571428571429
scalar BlockchainNetwork.iotNode[2] AverageBadServicesAt_270 1.8571428571429
scalar BlockchainNetwork.iotNode[3] AverageBadServicesAt_270 1.8571428571429
scalar BlockchainNetwork.iotNode[4] AverageBadServicesAt_270 1.8571428571429
scalar BlockchainNetwork.iotNode[5] AverageBadServicesAt_270 1.8571428571429
scalar BlockchainNetwork.iotNode[6] AverageBadServicesAt_270 1.8571428571429
scalar BlockchainNetwork.iotNode[7] AverageBadServicesAt_270 1.8571428571429
scalar BlockchainNetwork.iotNode[8] AverageBadServicesAt_270 1.8571428571429
scalar BlockchainNetwork.iotNode[9] AverageBadServicesAt_270 1.8571428571429
scalar BlockchainNetwork.iotNode[0] AverageBadServicesAt_280 1.8571428571429
scalar BlockchainNetwork.iotNode[1] AverageBadServicesAt_280 1.8571428571429
scalar BlockchainNetwork.iotNode[2] AverageBadServicesAt_280 1.8571428571429
scalar BlockchainNetwork.iotNode[3] AverageBadServicesAt_280 1.8571428571429
scalar BlockchainNetwork.iotNode[4] AverageBadServicesAt_280 1.8571428571429
scalar BlockchainNetwork.iotNode[5] AverageBadServicesAt_280 1.8571428571429
scalar BlockchainNetwork.iotNode[6] AverageBadServicesAt_280 1.8571428571429
scalar BlockchainNetwork.iotNode[7] AverageBadServicesAt_280 1.8571428571429
scalar BlockchainNetwork.iotNode[8] AverageBadServicesAt_280 1.8571428571429
scalar BlockchainNetwork.iotNode[9] AverageBadServicesAt_280 1.8571428571429
scalar BlockchainNetwork.iotNode[0] AverageBadServicesAt_290 1.8571428571429
scalar BlockchainNetwork.iotNode[1] AverageBadServicesAt_290 1.8571428571429
scalar BlockchainNetwork.iotNode[2] AverageBadServicesAt_290 1.8571428571429
scalar BlockchainNetwork.iotNode[3] AverageBadServicesAt_290 1.8571428571429
scalar BlockchainNetwork.iotNode[4] AverageBadServicesAt_290 1.8571428571429
scalar BlockchainNetwork.iotNode[5] AverageBadServicesAt_290 1.8571428571429
scalar BlockchainNetwork.iotNode[6] AverageBadServicesAt_290 1.8571428571429
scalar BlockchainNetwork.iotNode[7] AverageBadServicesAt_290 1.8571428571429
scalar BlockchainNetwork.iotNode[8] AverageBadServicesAt_290 1.8571428571429
scalar BlockchainNetwork.iotNode[9] AverageBadServicesAt_290 1.8571428571429
scalar BlockchainNetwork.iotNode[0] AverageBadServicesAt_300 1.8571428571429
scalar BlockchainNetwork.iotNode[1] AverageBadServicesAt_300 1.8571428571429
scalar BlockchainNetwork.iotNode[2] AverageBadServicesAt_300 1.8571428571429
scalar BlockchainNetwork.iotNode[3] AverageBadServicesAt_300 1.8571428571429
scalar BlockchainNetwork.iotNode[4] AverageBadServicesAt_300 1.8571428571429
scalar BlockchainNetwork.iotNode[5] AverageBadServicesAt_300 1.8571428571429
scalar BlockchainNetwork.iotNode[6] AverageBadServicesAt_300 1.8571428571429
scalar BlockchainNetwork.iotNode[7] AverageBadServicesAt_300 1.8571428571429
scalar BlockchainNetwork.iotNode[8] AverageBadServicesAt_300 1.8571428571429
scalar BlockchainNetwork.iotNode[9] AverageBadServicesAt_300 1.8571428571429
scalar BlockchainNetwork.iotNode[0] AverageBadServicesAt_310 1.8571428571429
scalar BlockchainNetwork.iotNode[1] AverageBadServicesAt_310 1.8571428571429
scalar BlockchainNetwork.iotNode[2] AverageBadServicesAt_310 1.8571428571429
scalar BlockchainNetwork.iotNode[3] AverageBadServicesAt_310 1.8571428571429
scalar BlockchainNetwork.iotNode[4] AverageBadServicesAt_310 1.8571428571429
scalar BlockchainNetwork.iotNode[5] AverageBadServicesAt_310 1.8571428571429
scalar BlockchainNetwork.iotNode[6] AverageBadServicesAt_310 1.8571428571429
scalar BlockchainNetwork.iotNode[7] AverageBadServicesAt_310 1.8571428571429
scalar BlockchainNetwork.iotNode[8] AverageBadServicesAt_310 1.8571428571429
scalar BlockchainNetwork.iotNode[9] AverageBadServicesAt_310 1.8571428571429
scalar BlockchainNetwork.iotNode[0] AverageBadServicesAt_320 1.8571428571429
scalar BlockchainNetwork.iotNode[1] AverageBadServicesAt_320 1.8571428571429
scalar BlockchainNetwork.iotNode[2] AverageBadServicesAt_320 1.8571428571429
scalar BlockchainNetwork.iotNode[3] AverageBadServicesAt_320 1.8571428571429
scalar BlockchainNetwork.iotNode[4] AverageBadServicesAt_320 1.8571428571429
scalar BlockchainNetwork.iotNode[5] AverageBadServicesAt_320 1.8571428571429
scalar BlockchainNetwork.iotNode[6] AverageBadServicesAt_320 1.8571428571429
scalar BlockchainNetwork.iotNode[7] AverageBadServicesAt_320 1.8571428571429
scalar BlockchainNetwork.iotNode[8] AverageBadServicesAt_320 1.8571428571429
scalar BlockchainNetwork.iotNode[9] AverageBadServicesAt_320 1.8571428571429
scalar BlockchainNetwork.iotNode[0] AverageBadServicesAt_330 1.8571428571429
scalar BlockchainNetwork.iotNode[1] AverageBadServicesAt_330 1.8571428571429
scalar BlockchainNetwork.iotNode[2] AverageBadServicesAt_330 1.8571428571429
scalar BlockchainNetwork.iotNode[3] AverageBadServicesAt_330 1.8571428571429
scalar BlockchainNetwork.iotNode[4] AverageBadServicesAt_330 1.8571428571429
scalar BlockchainNetwork.iotNode[5] AverageBadServicesAt_330 1.8571428571429
scalar BlockchainNetwork.iotNode[6] AverageBadServicesAt_330 1.8571428571429
scalar BlockchainNetwork.iotNode[7] AverageBadServicesAt_330 1.8571428571429
scalar BlockchainNetwork.iotNode[8] AverageBadServicesAt_330 1.8571428571429
scalar BlockchainNetwork.iotNode[9] AverageBadServicesAt_330 1.8571428571429
scalar BlockchainNetwork.iotNode[0] AverageBadServicesAt_340 1.8571428571429
scalar BlockchainNetwork.iotNode[1] AverageBadServicesAt_340 1.8571428571429
scalar BlockchainNetwork.iotNode[2] AverageBadServicesAt_340 1.8571428571429
scalar BlockchainNetwork.iotNode[3] AverageBadServicesAt_340 1.8571428571429
scalar BlockchainNetwork.iotNode[4] AverageBadServicesAt_340 1.8571428571429
scalar BlockchainNetwork.iotNode[5] AverageBadServicesAt_340 1.8571428571429
scalar BlockchainNetwork.iotNode[6] AverageBadServicesAt_340 1.8571428571429
scalar BlockchainNetwork.iotNode[7] AverageBadServicesAt_340 1.8571428571429
scalar BlockchainNetwork.iotNode[8] AverageBadServicesAt_340 1.8571428571429
scalar BlockchainNetwork.iotNode[9] AverageBadServicesAt_340 1.8571428571429
scalar BlockchainNetwork.iotNode[0] AverageBadServicesAt_350 1.8571428571429
scalar BlockchainNetwork.iotNode[1] AverageBadServicesAt_350 1.8571428571429
scalar BlockchainNetwork.iotNode[2] AverageBadServicesAt_350 1.8571428571429
scalar BlockchainNetwork.iotNode[3] AverageBadServicesAt_350 1.8571428571429
scalar BlockchainNetwork.iotNode[4] AverageBadServicesAt_350 1.8571428571429
scalar BlockchainNetwork.iotNode[5] AverageBadServicesAt_350 1.8571428571429
scalar BlockchainNetwork.iotNode[6] AverageBadServicesAt_350 1.8571428571429
scalar BlockchainNetwork.iotNode[7] AverageBadServicesAt_350 1.8571428571429
scalar BlockchainNetwork.iotNode[8] AverageBadServicesAt_350 1.8571428571429
scalar BlockchainNetwork.iotNode[9] AverageBadServicesAt_350 1.8571428571429
scalar BlockchainNetwork.iotNode[0] AverageBadServicesAt_360 1.8571428571429
scalar BlockchainNetwork.iotNode[1] AverageBadServicesAt_360 1.8571428571429
scalar BlockchainNetwork.iotNode[2] AverageBadServicesAt_360 1.8571428571429
scalar BlockchainNetwork.iotNode[3] AverageBadServicesAt_360 1.8571428571429
scalar BlockchainNetwork.iotNode[4] AverageBadServicesAt_360 1.8571428571429
scalar BlockchainNetwork.iotNode[5] AverageBadServicesAt_360 1.8571428571429
scalar BlockchainNetwork.iotNode[6] AverageBadServicesAt_360 1.8571428571429
scalar BlockchainNetwork.iotNode[7] AverageBadServicesAt_360 1.8571428571429
scalar BlockchainNetwork.iotNode[8] AverageBadServicesAt_360 1.8571428571429
scalar BlockchainNetwork.iotNode[9] AverageBadServicesAt_360 1.8571428571429
scalar BlockchainNetwork.iotNode[0] AverageBadServicesAt_370 1.8571428571429
scalar BlockchainNetwork.iotNode[1] AverageBadServicesAt_370 1.8571428571429
scalar BlockchainNetwork.iotNode[2] AverageBadServicesAt_370 1.8571428571429
scalar BlockchainNetwork.iotNode[3] AverageBadServicesAt_370 1.8571428571429
scalar BlockchainNetwork.iotNode[4] AverageBadServicesAt_370 1.8571428571429
scalar BlockchainNetwork.iotNode[5] AverageBadServicesAt_370 1.8571428571429
scalar BlockchainNetwork.iotNode[6] AverageBadServicesAt_370 1.8571428571429
scalar BlockchainNetwork.iotNode[7] AverageBadServicesAt_370 1.8571428571429
scalar BlockchainNetwork.iotNode[8] AverageBadServicesAt_370 1.8571428571429
scalar BlockchainNetwork.iotNode[9] AverageBadServicesAt_370 1.8571428571429
scalar BlockchainNetwork.iotNode[0] AverageBadServicesAt_380 1.8571428571429
scalar BlockchainNetwork.iotNode[1] AverageBadServicesAt_380 1.8571428571429
scalar BlockchainNetwork.iotNode[2] AverageBadServicesAt_380 1.8571428571429
scalar BlockchainNetwork.iotNode[3] AverageBadServicesAt_380 1.8571428571429
scalar BlockchainNetwork.iotNode[4] AverageBadServicesAt_380 1.8571428571429
scalar BlockchainNetwork.iotNode[5] AverageBadServicesAt_380 1.8571428571429
scalar BlockchainNetwork.iotNode[6] AverageBadServicesAt_380 1.8571428571429
scalar BlockchainNetwork.iotNode[7] AverageBadServicesAt_380 1.8571428571429
scalar BlockchainNetwork.iotNode[8] AverageBadServicesAt_380 1.8571428571429
scalar BlockchainNetwork.iotNode[9] AverageBadServicesAt_380 1.8571428571429
scalar BlockchainNetwork.iotNode[0] AverageBadServicesAt_390 1.8571428571429
scalar BlockchainNetwork.iotNode[1] AverageBadServicesAt_390 1.8571428571429
scalar BlockchainNetwork.iotNode[2] AverageBadServicesAt_390 1.8571428571429
scalar BlockchainNetwork.iotNode[3] AverageBadServicesAt_390 1.8571428571429
scalar BlockchainNetwork.iotNode[4] AverageBadServicesAt_390 1.8571428571429
scalar BlockchainNetwork.iotNode[5] AverageBadServicesAt_390 1.8571428571429
scalar BlockchainNetwork.iotNode[6] AverageBadServicesAt_390 1.8571428571429
scalar BlockchainNetwork.iotNode[7] AverageBadServicesAt_390 1.8571428571429
scalar BlockchainNetwork.iotNode[8] AverageBadServicesAt_390 1.8571428571429
scalar BlockchainNetwork.iotNode[9] AverageBadServicesAt_390 1.8571428571429
scalar BlockchainNetwork.iotNode[0] AverageBadServicesAt_400 1.8571428571429
scalar BlockchainNetwork.iotNode[1] AverageBadServicesAt_400 1.8571428571429
scalar BlockchainNetwork.iotNode[2] AverageBadServicesAt_400 1.8571428571429
scalar BlockchainNetwork.iotNode[3] AverageBadServicesAt_400 1.8571428571429
scalar BlockchainNetwork.iotNode[4] AverageBadServicesAt_400 1.8571428571429
scalar BlockchainNetwork.iotNode[5] AverageBadServicesAt_400 1.8571428571429
scalar BlockchainNetwork.iotNode[6] AverageBadServicesAt_400 1.8571428571429
scalar BlockchainNetwork.iotNode[7] AverageBadServicesAt_400 1.8571428571429
scalar BlockchainNetwork.iotNode[8] AverageBadServicesAt_400 1.8571428571429
scalar BlockchainNetwork.iotNode[9] AverageBadServicesAt_400 1.8571428571429
scalar BlockchainNetwork.iotNode[0] AverageBadServicesAt_410 1.8571428571429
scalar BlockchainNetwork.iotNode[1] AverageBadServicesAt_410 1.8571428571429
scalar BlockchainNetwork.iotNode[2] AverageBadServicesAt_410 1.8571428571429
scalar BlockchainNetwork.iotNode[3] AverageBadServicesAt_410 1.8571428571429
scalar BlockchainNetwork.iotNode[4] AverageBadServicesAt_410 1.8571428571429
scalar BlockchainNetwork.iotNode[5] AverageBadServicesAt_410 1.8571428571429
scalar BlockchainNetwork.iotNode[6] AverageBadServicesAt_410 1.8571428571429
scalar BlockchainNetwork.iotNode[7] AverageBadServicesAt_410 1.8571428571429
scalar BlockchainNetwork.iotNode[8] AverageBadServicesAt_410 1.8571428571429
scalar BlockchainNetwork.iotNode[9] AverageBadServicesAt_410 1.8571428571429
scalar BlockchainNetwork.iotNode[0] AverageBadServicesAt_420 1.8571428571429
scalar BlockchainNetwork.iotNode[1] AverageBadServicesAt_420 1.8571428571429
scalar BlockchainNetwork.iotNode[2] AverageBadServicesAt_420 1.8571428571429
scalar BlockchainNetwork.iotNode[3] AverageBadServicesAt_420 1.8571428571429
scalar BlockchainNetwork.iotNode[4] AverageBadServicesAt_420 1.8571428571429
scalar BlockchainNetwork.iotNode[5] AverageBadServicesAt_420 1.8571428571429
scalar BlockchainNetwork.iotNode[6] AverageBadServicesAt_420 1.8571428571429
scalar BlockchainNetwork.iotNode[7] AverageBadServicesAt_420 1.8571428571429
scalar BlockchainNetwork.iotNode[8] AverageBadServicesAt_420 1.8571428571429
scalar BlockchainNetwork.iotNode[9] AverageBadServicesAt_420 1.8571428571429
scalar BlockchainNetwork.iotNode[0] AverageBadServicesAt_430 1.8571428571429
scalar BlockchainNetwork.iotNode[1] AverageBadServicesAt_430 1.8571428571429
scalar BlockchainNetwork.iotNode[2] AverageBadServicesAt_430 1.8571428571429
scalar BlockchainNetwork.iotNode[3] AverageBadServicesAt_430 1.8571428571429
scalar BlockchainNetwork.iotNode[4] AverageBadServicesAt_430 1.8571428571429
scalar BlockchainNetwork.iotNode[5] AverageBadServicesAt_430 1.8571428571429
scalar BlockchainNetwork.iotNode[6] AverageBadServicesAt_430 1.8571428571429
scalar BlockchainNetwork.iotNode[7] AverageBadServicesAt_430 1.8571428571429
scalar BlockchainNetwork.iotNode[8] AverageBadServicesAt_430 1.8571428571429
scalar BlockchainNetwork.iotNode[9] AverageBadServicesAt_430 1.8571428571429
scalar BlockchainNetwork.iotNode[0] AverageBadServicesAt_440 1.8571428571429
scalar BlockchainNetwork.iotNode[1] AverageBadServicesAt_440 1.8571428571429
scalar BlockchainNetwork.iotNode[2] AverageBadServicesAt_440 1.8571428571429
scalar BlockchainNetwork.iotNode[3] AverageBadServicesAt_440 1.8571428571429
scalar BlockchainNetwork.iotNode[4] AverageBadServicesAt_440 1.8571428571429
scalar BlockchainNetwork.iotNode[5] AverageBadServicesAt_440 1.8571428571429
scalar BlockchainNetwork.iotNode[6] AverageBadServicesAt_440 1.8571428571429
scalar BlockchainNetwork.iotNode[7] AverageBadServicesAt_440 1.8571428571429
scalar BlockchainNetwork.iotNode[8] AverageBadServicesAt_440 1.8571428571429
scalar BlockchainNetwork.iotNode[9] AverageBadServicesAt_440 1.8571428571429
scalar BlockchainNetwork.iotNode[0] AverageBadServicesAt_450 1.8571428571429
scalar BlockchainNetwork.iotNode[1] AverageBadServicesAt_450 1.8571428571429
scalar BlockchainNetwork.iotNode[2] AverageBadServicesAt_450 1.8571428571429
scalar BlockchainNetwork.iotNode[3] AverageBadServicesAt_450 1.8571428571429
scalar BlockchainNetwork.iotNode[4] AverageBadServicesAt_450 1.8571428571429
scalar BlockchainNetwork.iotNode[5] AverageBadServicesAt_450 1.8571428571429
scalar BlockchainNetwork.iotNode[6] AverageBadServicesAt_450 1.8571428571429
scalar BlockchainNetwork.iotNode[7] AverageBadServicesAt_450 1.8571428571429
scalar BlockchainNetwork.iotNode[8] AverageBadServicesAt_450 1.8571428571429
scalar BlockchainNetwork.iotNode[9] AverageBadServicesAt_450 1.8571428571429
scalar BlockchainNetwork.iotNode[0] AverageBadServicesAt_460 1.8571428571429
scalar BlockchainNetwork.iotNode[1] AverageBadServicesAt_460 1.8571428571429
scalar BlockchainNetwork.iotNode[2] AverageBadServicesAt_460 1.8571428571429
scalar BlockchainNetwork.iotNode[3] AverageBadServicesAt_460 1.8571428571429
scalar BlockchainNetwork.iotNode[4] AverageBadServicesAt_460 1.8571428571429
scalar BlockchainNetwork.iotNode[5] AverageBadServicesAt_460 1.8571428571429
scalar BlockchainNetwork.iotNode[6] AverageBadServicesAt_460 1.8571428571429
scalar BlockchainNetwork.iotNode[7] AverageBadServicesAt_460 1.8571428571429
scalar BlockchainNetwork.iotNode[8] AverageBadServicesAt_460 1.8571428571429
scalar BlockchainNetwork.iotNode[9] AverageBadServicesAt_460 1.8571428571429
scalar BlockchainNetwork.iotNode[0] AverageBadServicesAt_470 1.8571428571429
scalar BlockchainNetwork.iotNode[1] AverageBadServicesAt_470 1.8571428571429
scalar BlockchainNetwork.iotNode[2] AverageBadServicesAt_470 1.8571428571429
scalar BlockchainNetwork.iotNode[3] AverageBadServicesAt_470 1.8571428571429
scalar BlockchainNetwork.iotNode[4] AverageBadServicesAt_470 1.8571428571429
scalar BlockchainNetwork.iotNode[5] AverageBadServicesAt_470 1.8571428571429
scalar BlockchainNetwork.iotNode[6] AverageBadServicesAt_470 1.8571428571429
scalar BlockchainNetwork.iotNode[7] AverageBadServicesAt_470 1.8571428571429
scalar BlockchainNetwork.iotNode[8] AverageBadServicesAt_470 1.8571428571429
scalar BlockchainNetwork.iotNode[9] AverageBadServicesAt_470 1.8571428571429
scalar BlockchainNetwork.iotNode[0] AverageBadServicesAt_480 1.8571428571429
scalar BlockchainNetwork.iotNode[1] AverageBadServicesAt_480 1.8571428571429
scalar BlockchainNetwork.iotNode[2] AverageBadServicesAt_480 1.8571428571429
scalar BlockchainNetwork.iotNode[3] AverageBadServicesAt_480 1.8571428571429
scalar BlockchainNetwork.iotNode[4] AverageBadServicesAt_480 1.8571428571429
scalar BlockchainNetwork.iotNode[5] AverageBadServicesAt_480 1.8571428571429
scalar BlockchainNetwork.iotNode[6] AverageBadServicesAt_480 1.8571428571429
scalar BlockchainNetwork.iotNode[7] AverageBadServicesAt_480 1.8571428571429
scalar BlockchainNetwork.iotNode[8] AverageBadServicesAt_480 1.8571428571429
scalar BlockchainNetwork.iotNode[9] AverageBadServicesAt_480 1.8571428571429
scalar BlockchainNetwork.iotNode[0] AverageBadServicesAt_490 1.8571428571429
scalar BlockchainNetwork.iotNode[1] AverageBadServicesAt_490 1.8571428571429
scalar BlockchainNetwork.iotNode[2] AverageBadServicesAt_490 1.8571428571429
scalar BlockchainNetwork.iotNode[3] AverageBadServicesAt_490 1.8571428571429
scalar BlockchainNetwork.iotNode[4] AverageBadServicesAt_490 1.8571428571429
scalar BlockchainNetwork.iotNode[5] AverageBadServicesAt_490 1.8571428571429
scalar BlockchainNetwork.iotNode[6] AverageBadServicesAt_490 1.8571428571429
scalar BlockchainNetwork.iotNode[7] AverageBadServicesAt_490 1.8571428571429
scalar BlockchainNetwork.iotNode[8] AverageBadServicesAt_490 1.8571428571429
scalar BlockchainNetwork.iotNode[9] AverageBadServicesAt_490 1.8571428571429
scalar BlockchainNetwork.iotNode[0] AverageBadServicesAt_500 1.8571428571429
scalar BlockchainNetwork.iotNode[1] AverageBadServicesAt_500 1.8571428571429
scalar BlockchainNetwork.iotNode[2] AverageBadServicesAt_500 1.8571428571429
scalar BlockchainNetwork.iotNode[3] AverageBadServicesAt_500 1.8571428571429
scalar BlockchainNetwork.iotNode[4] AverageBadServicesAt_500 1.8571428571429
scalar BlockchainNetwork.iotNode[5] AverageBadServicesAt_500 1.8571428571429
scalar BlockchainNetwork.iotNode[6] AverageBadServicesAt_500 1.8571428571429
scalar BlockchainNetwork.iotNode[7] AverageBadServicesAt_500 1.8571428571429
scalar BlockchainNetwork.iotNode[8] AverageBadServicesAt_500 1.8571428571429
scalar BlockchainNetwork.iotNode[9] AverageBadServicesAt_500 1.8571428571429
scalar BlockchainNetwork.iotNode[0] AverageBadServicesAt_510 1.8571428571429
scalar BlockchainNetwork.iotNode[1] AverageBadServicesAt_510 1.8571428571429
scalar BlockchainNetwork.iotNode[2] AverageBadServicesAt_510 1.8571428571429
scalar BlockchainNetwork.iotNode[3] AverageBadServicesAt_510 1.8571428571429
scalar BlockchainNetwork.iotNode[4] AverageBadServicesAt_510 1.8571428571429
scalar BlockchainNetwork.iotNode[5] AverageBadServicesAt_510 1.8571428571429
scalar BlockchainNetwork.iotNode[6] AverageBadServicesAt_510 1.8571428571429
scalar BlockchainNetwork.iotNode[7] AverageBadServicesAt_510 1.8571428571429
scalar BlockchainNetwork.iotNode[8] AverageBadServicesAt_510 1.8571428571429
scalar BlockchainNetwork.iotNode[9] AverageBadServicesAt_510 1.8571428571429
scalar BlockchainNetwork.iotNode[0] AverageBadServicesAt_520 1.8571428571429
scalar BlockchainNetwork.iotNode[1] AverageBadServicesAt_520 1.8571428571429
scalar BlockchainNetwork.iotNode[2] AverageBadServicesAt_520 1.8571428571429
scalar BlockchainNetwork.iotNode[3] AverageBadServicesAt_520 1.8571428571429
scalar BlockchainNetwork.iotNode[4] AverageBadServicesAt_520 1.8571428571429
scalar BlockchainNetwork.iotNode[5] AverageBadServicesAt_520 1.8571428571429
scalar BlockchainNetwork.iotNode[6] AverageBadServicesAt_520 1.8571428571429
scalar BlockchainNetwork.iotNode[7] AverageBadServicesAt_520 1.8571428571429
scalar BlockchainNetwork.iotNode[8] AverageBadServicesAt_520 1.8571428571429
scalar BlockchainNetwork.iotNode[9] AverageBadServicesAt_520 1.8571428571429
scalar BlockchainNetwork.iotNode[0] AverageBadServicesAt_530 1.8571428571429
scalar BlockchainNetwork.iotNode[1] AverageBadServicesAt_530 1.8571428571429
scalar BlockchainNetwork.iotNode[2] AverageBadServicesAt_530 1.8571428571429
scalar BlockchainNetwork.iotNode[3] AverageBadServicesAt_530 1.8571428571429
scalar BlockchainNetwork.iotNode[4] AverageBadServicesAt_530 1.8571428571429
scalar BlockchainNetwork.iotNode[5] AverageBadServicesAt_530 1.8571428571429
scalar BlockchainNetwork.iotNode[6] AverageBadServicesAt_530 1.8571428571429
scalar BlockchainNetwork.iotNode[7] AverageBadServicesAt_530 1.8571428571429
scalar BlockchainNetwork.iotNode[8] AverageBadServicesAt_530 1.8571428571429
scalar BlockchainNetwork.iotNode[9] AverageBadServicesAt_530 1.8571428571429
scalar BlockchainNetwork.iotNode[0] AverageBadServicesAt_540 1.8571428571429
scalar BlockchainNetwork.iotNode[1] AverageBadServicesAt_540 1.8571428571429
scalar BlockchainNetwork.iotNode[2] AverageBadServicesAt_540 1.8571428571429
scalar BlockchainNetwork.iotNode[3] AverageBadServicesAt_540 1.8571428571429
scalar BlockchainNetwork.iotNode[4] AverageBadServicesAt_540 1.8571428571429
scalar BlockchainNetwork.iotNode[5] AverageBadServicesAt_540 1.8571428571429
scalar BlockchainNetwork.iotNode[6] AverageBadServicesAt_540 1.8571428571429
scalar BlockchainNetwork.iotNode[7] AverageBadServicesAt_540 1.8571428571429
scalar BlockchainNetwork.iotNode[8] AverageBadServicesAt_540 1.8571428571429
scalar BlockchainNetwork.iotNode[9] AverageBadServicesAt_540 1.8571428571429
scalar BlockchainNetwork.iotNode[0] AverageBadServicesAt_550 1.8571428571429
scalar BlockchainNetwork.iotNode[1] AverageBadServicesAt_550 1.8571428571429
scalar BlockchainNetwork.iotNode[2] AverageBadServicesAt_550 1.8571428571429
scalar BlockchainNetwork.iotNode[3] AverageBadServicesAt_550 1.8571428571429
scalar BlockchainNetwork.iotNode[4] AverageBadServicesAt_550 1.8571428571429
scalar BlockchainNetwork.iotNode[5] AverageBadServicesAt_550 1.8571428571429
scalar BlockchainNetwork.iotNode[6] AverageBadServicesAt_550 1.8571428571429
scalar BlockchainNetwork.iotNode[7] AverageBadServicesAt_550 1.8571428571429
scalar BlockchainNetwork.iotNode[8] AverageBadServicesAt_550 1.8571428571429
scalar BlockchainNetwork.iotNode[9] AverageBadServicesAt_550 1.8571428571429
scalar BlockchainNetwork.iotNode[0] AverageBadServicesAt_560 1.8571428571429
scalar BlockchainNetwork.iotNode[1] AverageBadServicesAt_560 1.8571428571429
scalar BlockchainNetwork.iotNode[2] AverageBadServicesAt_560 1.8571428571429
scalar BlockchainNetwork.iotNode[3] AverageBadServicesAt_560 1.8571428571429
scalar BlockchainNetwork.iotNode[4] AverageBadServicesAt_560 1.8571428571429
scalar BlockchainNetwork.iotNode[5] AverageBadServicesAt_560 1.8571428571429
scalar BlockchainNetwork.iotNode[6] AverageBadServicesAt_560 1.8571428571429
scalar BlockchainNetwork.iotNode[7] AverageBadServicesAt_560 1.8571428571429
scalar BlockchainNetwork.iotNode[8] AverageBadServicesAt_560 1.8571428571429
scalar BlockchainNetwork.iotNode[9] AverageBadServicesAt_560 1.8571428571429
scalar BlockchainNetwork.iotNode[0] AverageBadServicesAt_570 1.8571428571429
scalar BlockchainNetwork.iotNode[1] AverageBadServicesAt_570 1.8571428571429
scalar BlockchainNetwork.iotNode[2] AverageBadServicesAt_570 1.8571428571429
scalar BlockchainNetwork.iotNode[3] AverageBadServicesAt_570 1.8571428571429
scalar BlockchainNetwork.iotNode[4] AverageBadServicesAt_570 1.8571428571429
scalar BlockchainNetwork.iotNode[5] AverageBadServicesAt_570 1.8571428571429
scalar BlockchainNetwork.iotNode[6] AverageBadServicesAt_570 1.8571428571429
scalar BlockchainNetwork.iotNode[7] AverageBadServicesAt_570 1.8571428571429
scalar BlockchainNetwork.iotNode[8] AverageBadServicesAt_570 1.8571428571429
scalar BlockchainNetwork.iotNode[9] AverageBadServicesAt_570 1.8571428571429
scalar BlockchainNetwork.iotNode[0] AverageBadServicesAt_580 1.8571428571429
scalar BlockchainNetwork.iotNode[1] AverageBadServicesAt_580 1.8571428571429
scalar BlockchainNetwork.iotNode[2] AverageBadServicesAt_580 1.8571428571429
scalar BlockchainNetwork.iotNode[3] AverageBadServicesAt_580 1.8571428571429
scalar BlockchainNetwork.iotNode[4] AverageBadServicesAt_580 1.8571428571429
scalar BlockchainNetwork.iotNode[5] AverageBadServicesAt_580 1.8571428571429
scalar BlockchainNetwork.iotNode[6] AverageBadServicesAt_580 1.8571428571429
scalar BlockchainNetwork.iotNode[7] AverageBadServicesAt_580 1.8571428571429
scalar BlockchainNetwork.iotNode[8] AverageBadServicesAt_580 1.8571428571429
scalar BlockchainNetwork.iotNode[9] AverageBadServicesAt_580 1.8571428571429
scalar BlockchainNetwork.iotNode[0] AverageBadServicesAt_590 1.8571428571429
scalar BlockchainNetwork.iotNode[1] AverageBadServicesAt_590 1.8571428571429
scalar BlockchainNetwork.iotNode[2] AverageBadServicesAt_590 1.8571428571429
scalar BlockchainNetwork.iotNode[3] AverageBadServicesAt_590 1.8571428571429
scalar BlockchainNetwork.iotNode[4] AverageBadServicesAt_590 1.8571428571429
scalar BlockchainNetwork.iotNode[5] AverageBadServicesAt_590 1.8571428571429
scalar BlockchainNetwork.iotNode[6] AverageBadServicesAt_590 1.8571428571429
scalar BlockchainNetwork.iotNode[7] AverageBadServicesAt_590 1.8571428571429
scalar BlockchainNetwork.iotNode[8] AverageBadServicesAt_590 1.8571428571429
scalar BlockchainNetwork.iotNode[9] AverageBadServicesAt_590 1.8571428571429
scalar BlockchainNetwork.iotNode[0] AverageBadServicesAt_600 1.8571428571429
scalar BlockchainNetwork.iotNode[1] AverageBadServicesAt_600 1.8571428571429
scalar BlockchainNetwork.iotNode[2] AverageBadServicesAt_600 1.8571428571429
scalar BlockchainNetwork.iotNode[3] AverageBadServicesAt_600 1.8571428571429
scalar BlockchainNetwork.iotNode[4] AverageBadServicesAt_600 1.8571428571429
scalar BlockchainNetwork.iotNode[5] AverageBadServicesAt_600 1.8571428571429
scalar BlockchainNetwork.iotNode[6] AverageBadServicesAt_600 1.8571428571429
scalar BlockchainNetwork.iotNode[7] AverageBadServicesAt_600 1.8571428571429
scalar BlockchainNetwork.iotNode[8] AverageBadServicesAt_600 1.8571428571429
scalar BlockchainNetwork.iotNode[9] AverageBadServicesAt_600 1.8571428571429
scalar BlockchainNetwork.iotNode[0] AverageBadServicesAt_610 1.8571428571429
scalar BlockchainNetwork.iotNode[1] AverageBadServicesAt_610 1.8571428571429
scalar BlockchainNetwork.iotNode[2] AverageBadServicesAt_610 1.8571428571429
scalar BlockchainNetwork.iotNode[3] AverageBadServicesAt_610 1.8571428571429
scalar BlockchainNetwork.iotNode[4] AverageBadServicesAt_610 1.8571428571429
scalar BlockchainNetwork.iotNode[5] AverageBadServicesAt_610 1.8571428571429
scalar BlockchainNetwork.iotNode[6] AverageBadServicesAt_610 1.8571428571429
scalar BlockchainNetwork.iotNode[7] AverageBadServicesAt_610 1.8571428571429
scalar BlockchainNetwork.iotNode[8] AverageBadServicesAt_610 1.8571428571429
scalar BlockchainNetwork.iotNode[9] AverageBadServicesAt_610 1.8571428571429
scalar BlockchainNetwork.iotNode[0] AverageBadServicesAt_620 1.8571428571429
scalar BlockchainNetwork.iotNode[1] AverageBadServicesAt_620 1.8571428571429
scalar BlockchainNetwork.iotNode[2] AverageBadServicesAt_620 1.8571428571429
scalar BlockchainNetwork.iotNode[3] AverageBadServicesAt_620 1.8571428571429
scalar BlockchainNetwork.iotNode[4] AverageBadServicesAt_620 1.8571428571429
scalar BlockchainNetwork.iotNode[5] AverageBadServicesAt_620 1.8571428571429
scalar BlockchainNetwork.iotNode[6] AverageBadServicesAt_620 1.8571428571429
scalar BlockchainNetwork.iotNode[7] AverageBadServicesAt_620 1.8571428571429
scalar BlockchainNetwork.iotNode[8] AverageBadServicesAt_620 1.8571428571429
scalar BlockchainNetwork.iotNode[9] AverageBadServicesAt_620 1.8571428571429
scalar BlockchainNetwork.iotNode[0] AverageBadServicesAt_630 1.8571428571429
scalar BlockchainNetwork.iotNode[1] AverageBadServicesAt_630 1.8571428571429
scalar BlockchainNetwork.iotNode[2] AverageBadServicesAt_630 1.8571428571429
scalar BlockchainNetwork.iotNode[3] AverageBadServicesAt_630 1.8571428571429
scalar BlockchainNetwork.iotNode[4] AverageBadServicesAt_630 1.8571428571429
scalar BlockchainNetwork.iotNode[5] AverageBadServicesAt_630 1.8571428571429
scalar BlockchainNetwork.iotNode[6] AverageBadServicesAt_630 1.8571428571429
scalar BlockchainNetwork.iotNode[7] AverageBadServicesAt_630 1.8571428571429
scalar BlockchainNetwork.iotNode[8] AverageBadServicesAt_630 1.8571428571429
scalar BlockchainNetwork.iotNode[9] AverageBadServicesAt_630 1.8571428571429
scalar BlockchainNetwork.iotNode[0] AverageBadServicesAt_640 1.8571428571429
scalar BlockchainNetwork.iotNode[1] AverageBadServicesAt_640 1.8571428571429
scalar BlockchainNetwork.iotNode[2] AverageBadServicesAt_640 1.8571428571429
scalar BlockchainNetwork.iotNode[3] AverageBadServicesAt_640 1.8571428571429
scalar BlockchainNetwork.iotNode[4] AverageBadServicesAt_640 1.8571428571429
scalar BlockchainNetwork.iotNode[5] AverageBadServicesAt_640 1.8571428571429
scalar BlockchainNetwork.iotNode[6] AverageBadServicesAt_640 1.8571428571429
scalar BlockchainNetwork.iotNode[7] AverageBadServicesAt_640 1.8571428571429
scalar BlockchainNetwork.iotNode[8] AverageBadServicesAt_640 1.8571428571429
scalar BlockchainNetwork.iotNode[9] AverageBadServicesAt_640 1.8571428571429
scalar BlockchainNetwork.iotNode[0] AverageBadServicesAt_650 1.8571428571429
scalar BlockchainNetwork.iotNode[1] AverageBadServicesAt_650 1.8571428571429
scalar BlockchainNetwork.iotNode[2] AverageBadServicesAt_650 1.8571428571429
scalar BlockchainNetwork.iotNode[3] AverageBadServicesAt_650 1.8571428571429
scalar BlockchainNetwork.iotNode[4] AverageBadServicesAt_650 1.8571428571429
scalar BlockchainNetwork.iotNode[5] AverageBadServicesAt_650 1.8571428571429
scalar BlockchainNetwork.iotNode[6] AverageBadServicesAt_650 1.8571428571429
scalar BlockchainNetwork.iotNode[7] AverageBadServicesAt_650 1.8571428571429
scalar BlockchainNetwork.iotNode[8] AverageBadServicesAt_650 1.8571428571429
scalar BlockchainNetwork.iotNode[9] AverageBadServicesAt_650 1.8571428571429
scalar BlockchainNetwork.iotNode[0] AverageBadServicesAt_660 1.8571428571429
scalar BlockchainNetwork.iotNode[1] AverageBadServicesAt_660 1.8571428571429
scalar BlockchainNetwork.iotNode[2] AverageBadServicesAt_660 1.8571428571429
scalar BlockchainNetwork.iotNode[3] AverageBadServicesAt_660 1.8571428571429
scalar BlockchainNetwork.iotNode[4] AverageBadServicesAt_660 1.8571428571429
scalar BlockchainNetwork.iotNode[5] AverageBadServicesAt_660 1.8571428571429
scalar BlockchainNetwork.iotNode[6] AverageBadServicesAt_660 1.8571428571429
scalar BlockchainNetwork.iotNode[7] AverageBadServicesAt_660 1.8571428571429
scalar BlockchainNetwork.iotNode[8] AverageBadServicesAt_660 1.8571428571429
scalar BlockchainNetwork.iotNode[9] AverageBadServicesAt_660 1.8571428571429
scalar BlockchainNetwork.iotNode[0] AverageBadServicesAt_670 1.8571428571429
scalar BlockchainNetwork.iotNode[1] AverageBadServicesAt_670 1.8571428571429
scalar BlockchainNetwork.iotNode[2] AverageBadServicesAt_670 1.8571428571429
scalar BlockchainNetwork.iotNode[3] AverageBadServicesAt_670 1.8571428571429
scalar BlockchainNetwork.iotNode[4] AverageBadServicesAt_670 1.8571428571429
scalar BlockchainNetwork.iotNode[5] AverageBadServicesAt_670 1.8571428571429
scalar BlockchainNetwork.iotNode[6] AverageBadServicesAt_670 1.8571428571429
scalar BlockchainNetwork.iotNode[7] AverageBadServicesAt_670 1.8571428571429
scalar BlockchainNetwork.iotNode[8] AverageBadServicesAt_670 1.8571428571429
scalar BlockchainNetwork.iotNode[9] AverageBadServicesAt_670 1.8571428571429
scalar BlockchainNetwork.iotNode[0] AverageBadServicesAt_680 1.8571428571429
scalar BlockchainNetwork.iotNode[1] AverageBadServicesAt_680 1.8571428571429
scalar BlockchainNetwork.iotNode[2] AverageBadServicesAt_680 1.8571428571429
scalar BlockchainNetwork.iotNode[3] AverageBadServicesAt_680 1.8571428571429
scalar BlockchainNetwork.iotNode[4] AverageBadServicesAt_680 1.8571428571429
scalar BlockchainNetwork.iotNode[5] AverageBadServicesAt_680 1.8571428571429
scalar BlockchainNetwork.iotNode[6] AverageBadServicesAt_680 1.8571428571429
scalar BlockchainNetwork.iotNode[7] AverageBadServicesAt_680 1.8571428571429
scalar BlockchainNetwork.iotNode[8] AverageBadServicesAt_680 1.8571428571429
scalar BlockchainNetwork.iotNode[9] AverageBadServicesAt_680 1.8571428571429
scalar BlockchainNetwork.iotNode[0] AverageBadServicesAt_690 1.8571428571429
scalar BlockchainNetwork.iotNode[1] AverageBadServicesAt_690 1.8571428571429
scalar BlockchainNetwork.iotNode[2] AverageBadServicesAt_690 1.8571428571429
scalar BlockchainNetwork.iotNode[3] AverageBadServicesAt_690 1.8571428571429
scalar BlockchainNetwork.iotNode[4] AverageBadServicesAt_690 1.8571428571429
scalar BlockchainNetwork.iotNode[5] AverageBadServicesAt_690 1.8571428571429
scalar BlockchainNetwork.iotNode[6] AverageBadServicesAt_690 1.8571428571429
scalar BlockchainNetwork.iotNode[7] AverageBadServicesAt_690 1.8571428571429
scalar BlockchainNetwork.iotNode[8] AverageBadServicesAt_690 1.8571428571429
scalar BlockchainNetwork.iotNode[9] AverageBadServicesAt_690 1.8571428571429
scalar BlockchainNetwork.iotNode[0] AverageBadServicesAt_700 1.8571428571429
scalar BlockchainNetwork.iotNode[1] AverageBadServicesAt_700 1.8571428571429
scalar BlockchainNetwork.iotNode[2] AverageBadServicesAt_700 1.8571428571429
scalar BlockchainNetwork.iotNode[3] AverageBadServicesAt_700 1.8571428571429
scalar BlockchainNetwork.iotNode[4] AverageBadServicesAt_700 1.8571428571429
scalar BlockchainNetwork.iotNode[5] AverageBadServicesAt_700 1.8571428571429
scalar BlockchainNetwork.iotNode[6] AverageBadServicesAt_700 1.8571428571429
scalar BlockchainNetwork.iotNode[7] AverageBadServicesAt_700 1.8571428571429
scalar BlockchainNetwork.iotNode[8] AverageBadServicesAt_700 1.8571428571429
scalar BlockchainNetwork.iotNode[9] AverageBadServicesAt_700 1.8571428571429
scalar BlockchainNetwork.iotNode[0] AverageBadServicesAt_710 1.8571428571429
scalar BlockchainNetwork.iotNode[1] AverageBadServicesAt_710 1.8571428571429
scalar BlockchainNetwork.iotNode[2] AverageBadServicesAt_710 1.8571428571429
scalar BlockchainNetwork.iotNode[3] AverageBadServicesAt_710 1.8571428571429
scalar BlockchainNetwork.iotNode[4] AverageBadServicesAt_710 1.8571428571429
scalar BlockchainNetwork.iotNode[5] AverageBadServicesAt_710 1.8571428571429
scalar BlockchainNetwork.iotNode[6] AverageBadServicesAt_710 1.8571428571429
scalar BlockchainNetwork.iotNode[7] AverageBadServicesAt_710 1.8571428571429
scalar BlockchainNetwork.iotNode[8] AverageBadServicesAt_710 1.8571428571429
scalar BlockchainNetwork.iotNode[9] AverageBadServicesAt_710 1.8571428571429
scalar BlockchainNetwork.iotNode[0] AverageBadServicesAt_720 1.8571428571429
scalar BlockchainNetwork.iotNode[1] AverageBadServicesAt_720 1.8571428571429
scalar BlockchainNetwork.iotNode[2] AverageBadServicesAt_720 1.8571428571429
scalar BlockchainNetwork.iotNode[3] AverageBadServicesAt_720 1.8571428571429
scalar BlockchainNetwork.iotNode[4] AverageBadServicesAt_720 1.8571428571429
scalar BlockchainNetwork.iotNode[5] AverageBadServicesAt_720 1.8571428571429
scalar BlockchainNetwork.iotNode[6] AverageBadServicesAt_720 1.8571428571429
scalar BlockchainNetwork.iotNode[7] AverageBadServicesAt_720 1.8571428571429
scalar BlockchainNetwork.iotNode[8] AverageBadServicesAt_720 1.8571428571429
scalar BlockchainNetwork.iotNode[9] AverageBadServicesAt_720 1.8571428571429
scalar BlockchainNetwork.iotNode[0] AverageBadServicesAt_730 1.8571428571429
scalar BlockchainNetwork.iotNode[1] AverageBadServicesAt_730 1.8571428571429
scalar BlockchainNetwork.iotNode[2] AverageBadServicesAt_730 1.8571428571429
scalar BlockchainNetwork.iotNode[3] AverageBadServicesAt_730 1.8571428571429
scalar BlockchainNetwork.iotNode[4] AverageBadServicesAt_730 1.8571428571429
scalar BlockchainNetwork.iotNode[5] AverageBadServicesAt_730 1.8571428571429
scalar BlockchainNetwork.iotNode[6] AverageBadServicesAt_730 1.8571428571429
scalar BlockchainNetwork.iotNode[7] AverageBadServicesAt_730 1.8571428571429
scalar BlockchainNetwork.iotNode[8] AverageBadServicesAt_730 1.8571428571429
scalar BlockchainNetwork.iotNode[9] AverageBadServicesAt_730 1.8571428571429
scalar BlockchainNetwork.iotNode[0] AverageBadServicesAt_740 1.8571428571429
scalar BlockchainNetwork.iotNode[1] AverageBadServicesAt_740 1.8571428571429
scalar BlockchainNetwork.iotNode[2] AverageBadServicesAt_740 1.8571428571429
scalar BlockchainNetwork.iotNode[3] AverageBadServicesAt_740 1.8571428571429
scalar BlockchainNetwork.iotNode[4] AverageBadServicesAt_740 1.8571428571429
scalar BlockchainNetwork.iotNode[5] AverageBadServicesAt_740 1.8571428571429
scalar BlockchainNetwork.iotNode[6] AverageBadServicesAt_740 1.8571428571429
scalar BlockchainNetwork.iotNode[7] AverageBadServicesAt_740 1.8571428571429
scalar BlockchainNetwork.iotNode[8] AverageBadServicesAt_740 1.8571428571429
scalar BlockchainNetwork.iotNode[9] AverageBadServicesAt_740 1.8571428571429
scalar BlockchainNetwork.iotNode[0] AverageBadServicesAt_750 1.8571428571429
scalar BlockchainNetwork.iotNode[1] AverageBadServicesAt_750 1.8571428571429
scalar BlockchainNetwork.iotNode[2] AverageBadServicesAt_750 1.8571428571429
scalar BlockchainNetwork.iotNode[3] AverageBadServicesAt_750 1.8571428571429
scalar BlockchainNetwork.iotNode[4] AverageBadServicesAt_750 1.8571428571429
scalar BlockchainNetwork.iotNode[5] AverageBadServicesAt_750 1.8571428571429
scalar BlockchainNetwork.iotNode[6] AverageBadServicesAt_750 1.8571428571429
scalar BlockchainNetwork.iotNode[7] AverageBadServicesAt_750 1.8571428571429
scalar BlockchainNetwork.iotNode[8] AverageBadServicesAt_750 1.8571428571429
scalar BlockchainNetwork.iotNode[9] AverageBadServicesAt_750 1.8571428571429
scalar BlockchainNetwork.iotNode[0] AverageBadServicesAt_760 1.8571428571429
scalar BlockchainNetwork.iotNode[1] AverageBadServicesAt_760 1.8571428571429
scalar BlockchainNetwork.iotNode[2] AverageBadServicesAt_760 1.8571428571429
scalar BlockchainNetwork.iotNode[3] AverageBadServicesAt_760 1.8571428571429
scalar BlockchainNetwork.iotNode[4] AverageBadServicesAt_760 1.8571428571429
scalar BlockchainNetwork.iotNode[5] AverageBadServicesAt_760 1.8571428571429
scalar BlockchainNetwork.iotNode[6] AverageBadServicesAt_760 1.8571428571429
scalar BlockchainNetwork.iotNode[7] AverageBadServicesAt_760 1.8571428571429
scalar BlockchainNetwork.iotNode[8] AverageBadServicesAt_760 1.8571428571429
scalar BlockchainNetwork.iotNode[9] AverageBadServicesAt_760 1.8571428571429
scalar BlockchainNetwork.iotNode[0] AverageBadServicesAt_770 1.8571428571429
scalar BlockchainNetwork.iotNode[1] AverageBadServicesAt_770 1.8571428571429
scalar BlockchainNetwork.iotNode[2] AverageBadServicesAt_770 1.8571428571429
scalar BlockchainNetwork.iotNode[3] AverageBadServicesAt_770 1.8571428571429
scalar BlockchainNetwork.iotNode[4] AverageBadServicesAt_770 1.8571428571429
scalar BlockchainNetwork.iotNode[5] AverageBadServicesAt_770 1.8571428571429
scalar BlockchainNetwork.iotNode[6] AverageBadServicesAt_770 1.8571428571429
scalar BlockchainNetwork.iotNode[7] AverageBadServicesAt_770 1.8571428571429
scalar BlockchainNetwork.iotNode[8] AverageBadServicesAt_770 1.8571428571429
scalar BlockchainNetwork.iotNode[9] AverageBadServicesAt_770 1.8571428571429
scalar BlockchainNetwork.iotNode[0] AverageBadServicesAt_780 1.8571428571429
scalar BlockchainNetwork.iotNode[1] AverageBadServicesAt_780 1.8571428571429
scalar BlockchainNetwork.iotNode[2] AverageBadServicesAt_780 1.8571428571429
scalar BlockchainNetwork.iotNode[3] AverageBadServicesAt_780 1.8571428571429
scalar BlockchainNetwork.iotNode[4] AverageBadServicesAt_780 1.8571428571429
scalar BlockchainNetwork.iotNode[5] AverageBadServicesAt_780 1.8571428571429
scalar BlockchainNetwork.iotNode[6] AverageBadServicesAt_780 1.8571428571429
scalar BlockchainNetwork.iotNode[7] AverageBadServicesAt_780 1.8571428571429
scalar BlockchainNetwork.iotNode[8] AverageBadServicesAt_780 1.8571428571429
scalar BlockchainNetwork.iotNode[9] AverageBadServicesAt_780 1.8571428571429
scalar BlockchainNetwork.iotNode[0] AverageBadServicesAt_790 1.8571428571429
scalar BlockchainNetwork.iotNode[1] AverageBadServicesAt_790 1.8571428571429
scalar BlockchainNetwork.iotNode[2] AverageBadServicesAt_790 1.8571428571429
scalar BlockchainNetwork.iotNode[3] AverageBadServicesAt_790 1.8571428571429
scalar BlockchainNetwork.iotNode[4] AverageBadServicesAt_790 1.8571428571429
scalar BlockchainNetwork.iotNode[5] AverageBadServicesAt_790 1.8571428571429
scalar BlockchainNetwork.iotNode[6] AverageBadServicesAt_790 1.8571428571429
scalar BlockchainNetwork.iotNode[7] AverageBadServicesAt_790 1.8571428571429
scalar BlockchainNetwork.iotNode[8] AverageBadServicesAt_790 1.8571428571429
scalar BlockchainNetwork.iotNode[9] AverageBadServicesAt_790 1.8571428571429
scalar BlockchainNetwork.iotNode[0] AverageBadServicesAt_800 1.8571428571429
scalar BlockchainNetwork.iotNode[1] AverageBadServicesAt_800 1.8571428571429
scalar BlockchainNetwork.iotNode[2] AverageBadServicesAt_800 1.8571428571429
scalar BlockchainNetwork.iotNode[3] AverageBadServicesAt_800 1.8571428571429
scalar BlockchainNetwork.iotNode[4] AverageBadServicesAt_800 1.8571428571429
scalar BlockchainNetwork.iotNode[5] AverageBadServicesAt_800 1.8571428571429
scalar BlockchainNetwork.iotNode[6] AverageBadServicesAt_800 1.8571428571429
scalar BlockchainNetwork.iotNode[7] AverageBadServicesAt_800 1.8571428571429
scalar BlockchainNetwork.iotNode[8] AverageBadServicesAt_800 1.8571428571429
scalar BlockchainNetwork.iotNode[9] AverageBadServicesAt_800 1.8571428571429
scalar BlockchainNetwork.iotNode[0] AverageBadServicesAt_810 1.8571428571429
scalar BlockchainNetwork.iotNode[1] AverageBadServicesAt_810 1.8571428571429
scalar BlockchainNetwork.iotNode[2] AverageBadServicesAt_810 1.8571428571429
scalar BlockchainNetwork.iotNode[3] AverageBadServicesAt_810 1.8571428571429
scalar BlockchainNetwork.iotNode[4] AverageBadServicesAt_810 1.8571428571429
scalar BlockchainNetwork.iotNode[5] AverageBadServicesAt_810 1.8571428571429
scalar BlockchainNetwork.iotNode[6] AverageBadServicesAt_810 1.8571428571429
scalar BlockchainNetwork.iotNode[7] AverageBadServicesAt_810 1.8571428571429
scalar BlockchainNetwork.iotNode[8] AverageBadServicesAt_810 1.8571428571429
scalar BlockchainNetwork.iotNode[9] AverageBadServicesAt_810 1.8571428571429
scalar BlockchainNetwork.iotNode[0] AverageBadServicesAt_820 1.8571428571429
scalar BlockchainNetwork.iotNode[1] AverageBadServicesAt_820 1.8571428571429
scalar BlockchainNetwork.iotNode[2] AverageBadServicesAt_820 1.8571428571429
scalar BlockchainNetwork.iotNode[3] AverageBadServicesAt_820 1.8571428571429
scalar BlockchainNetwork.iotNode[4] AverageBadServicesAt_820 1.8571428571429
scalar BlockchainNetwork.iotNode[5] AverageBadServicesAt_820 1.8571428571429
scalar BlockchainNetwork.iotNode[6] AverageBadServicesAt_820 1.8571428571429
scalar BlockchainNetwork.iotNode[7] AverageBadServicesAt_820 1.8571428571429
scalar BlockchainNetwork.iotNode[8] AverageBadServicesAt_820 1.8571428571429
scalar BlockchainNetwork.iotNode[9] AverageBadServicesAt_820 1.8571428571429
scalar BlockchainNetwork.iotNode[0] AverageBadServicesAt_830 1.8571428571429
scalar BlockchainNetwork.iotNode[1] AverageBadServicesAt_830 1.8571428571429
scalar BlockchainNetwork.iotNode[2] AverageBadServicesAt_830 1.8571428571429
scalar BlockchainNetwork.iotNode[3] AverageBadServicesAt_830 1.8571428571429
scalar BlockchainNetwork.iotNode[4] AverageBadServicesAt_830 1.8571428571429
scalar BlockchainNetwork.iotNode[5] AverageBadServicesAt_830 1.8571428571429
scalar BlockchainNetwork.iotNode[6] AverageBadServicesAt_830 1.8571428571429
scalar BlockchainNetwork.iotNode[7] AverageBadServicesAt_830 1.8571428571429
scalar BlockchainNetwork.iotNode[8] AverageBadServicesAt_830 1.8571428571429
scalar BlockchainNetwork.iotNode[9] AverageBadServicesAt_830 1.8571428571429
scalar BlockchainNetwork.iotNode[0] AverageBadServicesAt_840 1.8571428571429
scalar BlockchainNetwork.iotNode[1] AverageBadServicesAt_840 1.8571428571429
scalar BlockchainNetwork.iotNode[2] AverageBadServicesAt_840 1.8571428571429
scalar BlockchainNetwork.iotNode[3] AverageBadServicesAt_840 1.8571428571429
scalar BlockchainNetwork.iotNode[4] AverageBadServicesAt_840 1.8571428571429
scalar BlockchainNetwork.iotNode[5] AverageBadServicesAt_840 1.8571428571429
scalar BlockchainNetwork.iotNode[6] AverageBadServicesAt_840 1.8571428571429
scalar BlockchainNetwork.iotNode[7] AverageBadServicesAt_840 1.8571428571429
scalar BlockchainNetwork.iotNode[8] AverageBadServicesAt_840 1.8571428571429
scalar BlockchainNetwork.iotNode[9] AverageBadServicesAt_840 1.8571428571429
scalar BlockchainNetwork.iotNode[0] AverageBadServicesAt_850 1.8571428571429
scalar BlockchainNetwork.iotNode[1] AverageBadServicesAt_850 1.8571428571429
scalar BlockchainNetwork.iotNode[2] AverageBadServicesAt_850 1.8571428571429
scalar BlockchainNetwork.iotNode[3] AverageBadServicesAt_850 1.8571428571429
scalar BlockchainNetwork.iotNode[4] AverageBadServicesAt_850 1.8571428571429
scalar BlockchainNetwork.iotNode[5] AverageBadServicesAt_850 1.8571428571429
scalar BlockchainNetwork.iotNode[6] AverageBadServicesAt_850 1.8571428571429
scalar BlockchainNetwork.iotNode[7] AverageBadServicesAt_850 1.8571428571429
scalar BlockchainNetwork.iotNode[8] AverageBadServicesAt_850 1.8571428571429
scalar BlockchainNetwork.iotNode[9] AverageBadServicesAt_850 1.8571428571429
scalar BlockchainNetwork.iotNode[0] AverageBadServicesAt_860 1.8571428571429
scalar BlockchainNetwork.iotNode[1] AverageBadServicesAt_860 1.8571428571429
scalar BlockchainNetwork.iotNode[2] AverageBadServicesAt_860 1.8571428571429
scalar BlockchainNetwork.iotNode[3] AverageBadServicesAt_860 1.8571428571429
scalar BlockchainNetwork.iotNode[4] AverageBadServicesAt_860 1.8571428571429
scalar BlockchainNetwork.iotNode[5] AverageBadServicesAt_860 1.8571428571429
scalar BlockchainNetwork.iotNode[6] AverageBadServicesAt_860 1.8571428571429
scalar BlockchainNetwork.iotNode[7] AverageBadServicesAt_860 1.8571428571429
scalar BlockchainNetwork.iotNode[8] AverageBadServicesAt_860 1.8571428571429
scalar BlockchainNetwork.iotNode[9] AverageBadServicesAt_860 1.8571428571429
scalar BlockchainNetwork.iotNode[0] AverageBadServicesAt_870 1.8571428571429
scalar BlockchainNetwork.iotNode[1] AverageBadServicesAt_870 1.8571428571429
scalar BlockchainNetwork.iotNode[2] AverageBadServicesAt_870 1.8571428571429
scalar BlockchainNetwork.iotNode[3] AverageBadServicesAt_870 1.8571428571429
scalar BlockchainNetwork.iotNode[4] AverageBadServicesAt_870 1.8571428571429
scalar BlockchainNetwork.iotNode[5] AverageBadServicesAt_870 1.8571428571429
scalar BlockchainNetwork.iotNode[6] AverageBadServicesAt_870 1.8571428571429
scalar BlockchainNetwork.iotNode[7] AverageBadServicesAt_870 1.8571428571429
scalar BlockchainNetwork.iotNode[8] AverageBadServicesAt_870 1.8571428571429
scalar BlockchainNetwork.iotNode[9] AverageBadServicesAt_870 1.8571428571429
scalar BlockchainNetwork.iotNode[0] AverageBadServicesAt_880 1.8571428571429
scalar BlockchainNetwork.iotNode[1] AverageBadServicesAt_880 1.8571428571429
scalar BlockchainNetwork.iotNode[2] AverageBadServicesAt_880 1.8571428571429
scalar BlockchainNetwork.iotNode[3] AverageBadServicesAt_880 1.8571428571429
scalar BlockchainNetwork.iotNode[4] AverageBadServicesAt_880 1.8571428571429
scalar BlockchainNetwork.iotNode[5] AverageBadServicesAt_880 1.8571428571429
scalar BlockchainNetwork.iotNode[6] AverageBadServicesAt_880 1.8571428571429
scalar BlockchainNetwork.iotNode[7] AverageBadServicesAt_880 1.8571428571429
scalar BlockchainNetwork.iotNode[8] AverageBadServicesAt_880 1.8571428571429
scalar BlockchainNetwork.iotNode[9] AverageBadServicesAt_880 1.8571428571429
scalar BlockchainNetwork.iotNode[0] AverageBadServicesAt_890 1.8571428571429
scalar BlockchainNetwork.iotNode[1] AverageBadServicesAt_890 1.8571428571429
scalar BlockchainNetwork.iotNode[2] AverageBadServicesAt_890 1.8571428571429
scalar BlockchainNetwork.iotNode[3] AverageBadServicesAt_890 1.8571428571429
scalar BlockchainNetwork.iotNode[4] AverageBadServicesAt_890 1.8571428571429
scalar BlockchainNetwork.iotNode[5] AverageBadServicesAt_890 1.8571428571429
scalar BlockchainNetwork.iotNode[6] AverageBadServicesAt_890 1.8571428571429
scalar BlockchainNetwork.iotNode[7] AverageBadServicesAt_890 1.8571428571429
scalar BlockchainNetwork.iotNode[8] AverageBadServicesAt_890 1.8571428571429
scalar BlockchainNetwork.iotNode[9] AverageBadServicesAt_890 1.8571428571429
scalar BlockchainNetwork.iotNode[0] AverageBadServicesAt_900 1.8571428571429
scalar BlockchainNetwork.iotNode[1] AverageBadServicesAt_900 1.8571428571429
scalar BlockchainNetwork.iotNode[2] AverageBadServicesAt_900 1.8571428571429
scalar BlockchainNetwork.iotNode[3] AverageBadServicesAt_900 1.8571428571429
scalar BlockchainNetwork.iotNode[4] AverageBadServicesAt_900 1.8571428571429
scalar BlockchainNetwork.iotNode[5] AverageBadServicesAt_900 1.8571428571429
scalar BlockchainNetwork.iotNode[6] AverageBadServicesAt_900 1.8571428571429
scalar BlockchainNetwork.iotNode[7] AverageBadServicesAt_900 1.8571428571429
scalar BlockchainNetwork.iotNode[8] AverageBadServicesAt_900 1.8571428571429
scalar BlockchainNetwork.iotNode[9] AverageBadServicesAt_900 1.8571428571429
scalar BlockchainNetwork.iotNode[0] AverageBadServicesAt_910 1.8571428571429
scalar BlockchainNetwork.iotNode[1] AverageBadServicesAt_910 1.8571428571429
scalar BlockchainNetwork.iotNode[2] AverageBadServicesAt_910 1.8571428571429
scalar BlockchainNetwork.iotNode[3] AverageBadServicesAt_910 1.8571428571429
scalar BlockchainNetwork.iotNode[4] AverageBadServicesAt_910 1.8571428571429
scalar BlockchainNetwork.iotNode[5] AverageBadServicesAt_910 1.8571428571429
scalar BlockchainNetwork.iotNode[6] AverageBadServicesAt_910 1.8571428571429
scalar BlockchainNetwork.iotNode[7] AverageBadServicesAt_910 1.8571428571429
scalar BlockchainNetwork.iotNode[8] AverageBadServicesAt_910 1.8571428571429
scalar BlockchainNetwork.iotNode[9] AverageBadServicesAt_910 1.8571428571429
scalar BlockchainNetwork.iotNode[0] AverageBadServicesAt_920 1.8571428571429
scalar BlockchainNetwork.iotNode[1] AverageBadServicesAt_920 1.8571428571429
scalar BlockchainNetwork.iotNode[2] AverageBadServicesAt_920 1.8571428571429
scalar BlockchainNetwork.iotNode[3] AverageBadServicesAt_920 1.8571428571429
scalar BlockchainNetwork.iotNode[4] AverageBadServicesAt_920 1.8571428571429
scalar BlockchainNetwork.iotNode[5] AverageBadServicesAt_920 1.8571428571429
scalar BlockchainNetwork.iotNode[6] AverageBadServicesAt_920 1.8571428571429
scalar BlockchainNetwork.iotNode[7] AverageBadServicesAt_920 1.8571428571429
scalar BlockchainNetwork.iotNode[8] AverageBadServicesAt_920 1.8571428571429
scalar BlockchainNetwork.iotNode[9] AverageBadServicesAt_920 1.8571428571429
scalar BlockchainNetwork.iotNode[0] AverageBadServicesAt_930 1.8571428571429
scalar BlockchainNetwork.iotNode[1] AverageBadServicesAt_930 1.8571428571429
scalar BlockchainNetwork.iotNode[2] AverageBadServicesAt_930 1.8571428571429
scalar BlockchainNetwork.iotNode[3] AverageBadServicesAt_930 1.8571428571429
scalar BlockchainNetwork.iotNode[4] AverageBadServicesAt_930 1.8571428571429
scalar BlockchainNetwork.iotNode[5] AverageBadServicesAt_930 1.8571428571429
scalar BlockchainNetwork.iotNode[6] AverageBadServicesAt_930 1.8571428571429
scalar BlockchainNetwork.iotNode[7] AverageBadServicesAt_930 1.8571428571429
scalar BlockchainNetwork.iotNode[8] AverageBadServicesAt_930 1.8571428571429
scalar BlockchainNetwork.iotNode[9] AverageBadServicesAt_930 1.8571428571429
scalar BlockchainNetwork.iotNode[0] AverageBadServicesAt_940 1.8571428571429
scalar BlockchainNetwork.iotNode[1] AverageBadServicesAt_940 1.8571428571429
scalar BlockchainNetwork.iotNode[2] AverageBadServicesAt_940 1.8571428571429
scalar BlockchainNetwork.iotNode[3] AverageBadServicesAt_940 1.8571428571429
scalar BlockchainNetwork.iotNode[4] AverageBadServicesAt_940 1.8571428571429
scalar BlockchainNetwork.iotNode[5] AverageBadServicesAt_940 1.8571428571429
scalar BlockchainNetwork.iotNode[6] AverageBadServicesAt_940 1.8571428571429
scalar BlockchainNetwork.iotNode[7] AverageBadServicesAt_940 1.8571428571429
scalar BlockchainNetwork.iotNode[8] AverageBadServicesAt_940 1.8571428571429
scalar BlockchainNetwork.iotNode[9] AverageBadServicesAt_940 1.8571428571429
scalar BlockchainNetwork.iotNode[0] AverageBadServicesAt_950 1.8571428571429
scalar BlockchainNetwork.iotNode[1] AverageBadServicesAt_950 1.8571428571429
scalar BlockchainNetwork.iotNode[2] AverageBadServicesAt_950 1.8571428571429
scalar BlockchainNetwork.iotNode[3] AverageBadServicesAt_950 1.8571428571429
scalar BlockchainNetwork.iotNode[4] AverageBadServicesAt_950 1.8571428571429
scalar BlockchainNetwork.iotNode[5] AverageBadServicesAt_950 1.8571428571429
scalar BlockchainNetwork.iotNode[6] AverageBadServicesAt_950 1.8571428571429
scalar BlockchainNetwork.iotNode[7] AverageBadServicesAt_950 1.8571428571429
scalar BlockchainNetwork.iotNode[8] AverageBadServicesAt_950 1.8571428571429
scalar BlockchainNetwork.iotNode[9] AverageBadServicesAt_950 1.8571428571429
scalar BlockchainNetwork.iotNode[0] AverageBadServicesAt_960 1.8571428571429
scalar BlockchainNetwork.iotNode[1] AverageBadServicesAt_960 1.8571428571429
scalar BlockchainNetwork.iotNode[2] AverageBadServicesAt_960 1.8571428571429
scalar BlockchainNetwork.iotNode[3] AverageBadServicesAt_960 1.8571428571429
scalar BlockchainNetwork.iotNode[4] AverageBadServicesAt_960 1.8571428571429
scalar BlockchainNetwork.iotNode[5] AverageBadServicesAt_960 1.8571428571429
scalar BlockchainNetwork.iotNode[6] AverageBadServicesAt_960 1.8571428571429
scalar BlockchainNetwork.iotNode[7] AverageBadServicesAt_960 1.8571428571429
scalar BlockchainNetwork.iotNode[8] AverageBadServicesAt_960 1.8571428571429
scalar BlockchainNetwork.iotNode[9] AverageBadServicesAt_960 1.8571428571429
scalar BlockchainNetwork.iotNode[0] AverageBadServicesAt_970 1.8571428571429
scalar BlockchainNetwork.iotNode[1] AverageBadServicesAt_970 1.8571428571429
scalar BlockchainNetwork.iotNode[2] AverageBadServicesAt_970 1.8571428571429
scalar BlockchainNetwork.iotNode[3] AverageBadServicesAt_970 1.8571428571429
scalar BlockchainNetwork.iotNode[4] AverageBadServicesAt_970 1.8571428571429
scalar BlockchainNetwork.iotNode[5] AverageBadServicesAt_970 1.8571428571429
scalar BlockchainNetwork.iotNode[6] AverageBadServicesAt_970 1.8571428571429
scalar BlockchainNetwork.iotNode[7] AverageBadServicesAt_970 1.8571428571429
scalar BlockchainNetwork.iotNode[8] AverageBadServicesAt_970 1.8571428571429
scalar BlockchainNetwork.iotNode[9] AverageBadServicesAt_970 1.8571428571429
scalar BlockchainNetwork.iotNode[0] AverageBadServicesAt_980 1.8571428571429
scalar BlockchainNetwork.iotNode[1] AverageBadServicesAt_980 1.8571428571429
scalar BlockchainNetwork.iotNode[2] AverageBadServicesAt_980 1.8571428571429
scalar BlockchainNetwork.iotNode[3] AverageBadServicesAt_980 1.8571428571429
scalar BlockchainNetwork.iotNode[4] AverageBadServicesAt_980 1.8571428571429
scalar BlockchainNetwork.iotNode[5] AverageBadServicesAt_980 1.8571428571429
scalar BlockchainNetwork.iotNode[6] AverageBadServicesAt_980 1.8571428571429
scalar BlockchainNetwork.iotNode[7] AverageBadServicesAt_980 1.8571428571429
scalar BlockchainNetwork.iotNode[8] AverageBadServicesAt_980 1.8571428571429
scalar BlockchainNetwork.iotNode[9] AverageBadServicesAt_980 1.8571428571429
scalar BlockchainNetwork.iotNode[0] AverageBadServicesAt_990 1.8571428571429
scalar BlockchainNetwork.iotNode[1] AverageBadServicesAt_990 1.8571428571429
scalar BlockchainNetwork.iotNode[2] AverageBadServicesAt_990 1.8571428571429
scalar BlockchainNetwork.iotNode[3] AverageBadServicesAt_990 1.8571428571429
scalar BlockchainNetwork.iotNode[4] AverageBadServicesAt_990 1.8571428571429
scalar BlockchainNetwork.iotNode[5] AverageBadServicesAt_990 1.8571428571429
scalar BlockchainNetwork.iotNode[6] AverageBadServicesAt_990 1.8571428571429
scalar BlockchainNetwork.iotNode[7] AverageBadServicesAt_990 1.8571428571429
scalar BlockchainNetwork.iotNode[8] AverageBadServicesAt_990 1.8571428571429
scalar BlockchainNetwork.iotNode[9] AverageBadServicesAt_990 1.8571428571429
scalar BlockchainNetwork.iotNode[0] AverageBadServicesAt_1000 1.8571428571429
scalar BlockchainNetwork.iotNode[1] AverageBadServicesAt_1000 1.8571428571429
scalar BlockchainNetwork.iotNode[2] AverageBadServicesAt_1000 1.8571428571429
scalar BlockchainNetwork.iotNode[3] AverageBadServicesAt_1000 1.8571428571429
scalar BlockchainNetwork.iotNode[4] AverageBadServicesAt_1000 1.8571428571429
scalar BlockchainNetwork.iotNode[5] AverageBadServicesAt_1000 1.8571428571429
scalar BlockchainNetwork.iotNode[6] AverageBadServicesAt_1000 1.8571428571429
scalar BlockchainNetwork.iotNode[7] AverageBadServicesAt_1000 1.8571428571429
scalar BlockchainNetwork.iotNode[8] AverageBadServicesAt_1000 1.8571428571429
scalar BlockchainNetwork.iotNode[9] AverageBadServicesAt_1000 1.8571428571429
scalar BlockchainNetwork.iotNode[0] AverageBadServicesAt_1010 1.8571428571429
scalar BlockchainNetwork.iotNode[1] AverageBadServicesAt_1010 1.8571428571429
scalar BlockchainNetwork.iotNode[2] AverageBadServicesAt_1010 1.8571428571429
scalar BlockchainNetwork.iotNode[3] AverageBadServicesAt_1010 1.8571428571429
scalar BlockchainNetwork.iotNode[4] AverageBadServicesAt_1010 1.8571428571429
scalar BlockchainNetwork.iotNode[5] AverageBadServicesAt_1010 1.8571428571429
scalar BlockchainNetwork.iotNode[6] AverageBadServicesAt_1010 1.8571428571429
scalar BlockchainNetwork.iotNode[7] AverageBadServicesAt_1010 1.8571428571429
scalar BlockchainNetwork.iotNode[8] AverageBadServicesAt_1010 1.8571428571429
scalar BlockchainNetwork.iotNode[9] AverageBadServicesAt_1010 1.8571428571429
scalar BlockchainNetwork.iotNode[0] AverageBadServicesAt_1020 1.8571428571429
scalar BlockchainNetwork.iotNode[1] AverageBadServicesAt_1020 1.8571428571429
scalar BlockchainNetwork.iotNode[2] AverageBadServicesAt_1020 1.8571428571429
scalar BlockchainNetwork.iotNode[3] AverageBadServicesAt_1020 1.8571428571429
scalar BlockchainNetwork.iotNode[4] AverageBadServicesAt_1020 1.8571428571429
scalar BlockchainNetwork.iotNode[5] AverageBadServicesAt_1020 1.8571428571429
scalar BlockchainNetwork.iotNode[6] AverageBadServicesAt_1020 1.8571428571429
scalar BlockchainNetwork.iotNode[7] AverageBadServicesAt_1020 1.8571428571429
scalar BlockchainNetwork.iotNode[8] AverageBadServicesAt_1020 1.8571428571429
scalar BlockchainNetwork.iotNode[9] AverageBadServicesAt_1020 1.8571428571429
scalar BlockchainNetwork.iotNode[0] AverageBadServicesAt_1030 1.8571428571429
scalar BlockchainNetwork.iotNode[1] AverageBadServicesAt_1030 1.8571428571429
scalar BlockchainNetwork.iotNode[2] AverageBadServicesAt_1030 1.8571428571429
scalar BlockchainNetwork.iotNode[3] AverageBadServicesAt_1030 1.8571428571429
scalar BlockchainNetwork.iotNode[4] AverageBadServicesAt_1030 1.8571428571429
scalar BlockchainNetwork.iotNode[5] AverageBadServicesAt_1030 1.8571428571429
scalar BlockchainNetwork.iotNode[6] AverageBadServicesAt_1030 1.8571428571429
scalar BlockchainNetwork.iotNode[7] AverageBadServicesAt_1030 1.8571428571429
scalar BlockchainNetwork.iotNode[8] AverageBadServicesAt_1030 1.8571428571429
scalar BlockchainNetwork.iotNode[9] AverageBadServicesAt_1030 1.8571428571429
[...]
scalar BlockchainNetwork.iotNode[0] AverageBadServicesAt_1710 1.8571428571429
scalar BlockchainNetwork.iotNode[1] AverageBadServicesAt_1710 1.8571428571429
scalar BlockchainNetwork.iotNode[2] AverageBadServicesAt_1710 1.8571428571429
scalar BlockchainNetwork.iotNode[3] AverageBadServicesAt_1710 1.8571428571429
scalar BlockchainNetwork.iotNode[4] AverageBadServicesAt_1710 1.8571428571429
scalar BlockchainNetwork.iotNode[5] AverageBadServicesAt_1710 1.8571428571429
scalar BlockchainNetwork.iotNode[6] AverageBadServicesAt_1710 1.8571428571429
scalar BlockchainNetwork.iotNode[7] AverageBadServicesAt_1710 1.8571428571429
scalar BlockchainNetwork.iotNode[8] AverageBadServicesAt_1710 1.8571428571429
scalar BlockchainNetwork.iotNode[9] AverageBadServicesAt_1710 1.8571428571429
scalar BlockchainNetwork.iotNode[0] AverageBadServicesAt_1720 1.8571428571429
scalar BlockchainNetwork.iotNode[1] AverageBadServicesAt_1720 1.8571428571429
scalar BlockchainNetwork.iotNode[2] AverageBadServicesAt_1720 1.8571428571429
scalar BlockchainNetwork.iotNode[3] AverageBadServicesAt_1720 1.8571428571429
scalar BlockchainNetwork.iotNode[4] AverageBadServicesAt_1720 1.8571428571429
scalar BlockchainNetwork.iotNode[5] AverageBadServicesAt_1720 1.8571428571429
scalar BlockchainNetwork.iotNode[6] AverageBadServicesAt_1720 1.8571428571429
scalar BlockchainNetwork.iotNode[7] AverageBadServicesAt_1720 1.8571428571429
scalar BlockchainNetwork.iotNode[8] AverageBadServicesAt_1720 1.8571428571429
scalar BlockchainNetwork.iotNode[9] AverageBadServicesAt_1720 1.8571428571429
scalar BlockchainNetwork.iotNode[0] AverageBadServicesAt_1730 1.8571428571429
scalar BlockchainNetwork.iotNode[1] AverageBadServicesAt_1730 1.8571428571429
scalar BlockchainNetwork.iotNode[2] AverageBadServicesAt_1730 1.8571428571429
scalar BlockchainNetwork.iotNode[3] AverageBadServicesAt_1730 1.8571428571429
scalar BlockchainNetwork.iotNode[4] AverageBadServicesAt_1730 1.8571428571429
scalar BlockchainNetwork.iotNode[5] AverageBadServicesAt_1730 1.8571428571429
scalar BlockchainNetwork.iotNode[6] AverageBadServicesAt_1730 1.8571428571429
scalar BlockchainNetwork.iotNode[7] AverageBadServicesAt_1730 1.8571428571429
scalar BlockchainNetwork.iotNode[8] AverageBadServicesAt_1730 1.8571428571429
scalar BlockchainNetwork.iotNode[9] AverageBadServicesAt_1730 1.8571428571429
scalar BlockchainNetwork.iotNode[0] AverageBadServicesAt_1740 1.8571428571429
scalar BlockchainNetwork.iotNode[1] AverageBadServicesAt_1740 1.8571428571429
scalar BlockchainNetwork.iotNode[2] AverageBadServicesAt_1740 1.8571428571429
scalar BlockchainNetwork.iotNode[3] AverageBadServicesAt_1740 1.8571428571429
scalar BlockchainNetwork.iotNode[4] AverageBadServicesAt_1740 1.8571428571429
scalar BlockchainNetwork.iotNode[5] AverageBadServicesAt_1740 1.8571428571429
scalar BlockchainNetwork.iotNode[6] AverageBadServicesAt_1740 1.8571428571429
scalar BlockchainNetwork.iotNode[7] AverageBadServicesAt_1740 1.8571428571429
scalar BlockchainNetwork.iotNode[8] AverageBadServicesAt_1740 1.8571428571429
scalar BlockchainNetwork.iotNode[9] AverageBadServicesAt_1740 1.8571428571429
scalar BlockchainNetwork.iotNode[0] AverageBadServicesAt_1750 1.8571428571429
scalar BlockchainNetwork.iotNode[1] AverageBadServicesAt_1750 1.8571428571429
scalar BlockchainNetwork.iotNode[2] AverageBadServicesAt_1750 1.8571428571429
scalar BlockchainNetwork.iotNode[3] AverageBadServicesAt_1750 1.8571428571429
scalar BlockchainNetwork.iotNode[4] AverageBadServicesAt_1750 1.8571428571429
scalar BlockchainNetwork.iotNode[5] AverageBadServicesAt_1750 1.8571428571429
scalar BlockchainNetwork.iotNode[6] AverageBadServicesAt_1750 1.8571428571429
scalar BlockchainNetwork.iotNode[7] AverageBadServicesAt_1750 1.8571428571429
scalar BlockchainNetwork.iotNode[8] AverageBadServicesAt_1750 1.8571428571429
scalar BlockchainNetwork.iotNode[9] AverageBadServicesAt_1750 1.8571428571429
scalar BlockchainNetwork.iotNode[0] AverageBadServicesAt_1760 1.8571428571429
scalar BlockchainNetwork.iotNode[1] AverageBadServicesAt_1760 1.8571428571429
scalar BlockchainNetwork.iotNode[2] AverageBadServicesAt_1760 1.8571428571429
scalar BlockchainNetwork.iotNode[3] AverageBadServicesAt_1760 1.8571428571429
scalar BlockchainNetwork.iotNode[4] AverageBadServicesAt_1760 1.8571428571429
scalar BlockchainNetwork.iotNode[5] AverageBadServicesAt_1760 1.8571428571429
scalar BlockchainNetwork.iotNode[6] AverageBadServicesAt_1760 1.8571428571429
scalar BlockchainNetwork.iotNode[7] AverageBadServicesAt_1760 1.8571428571429
scalar BlockchainNetwork.iotNode[8] AverageBadServicesAt_1760 1.8571428571429
scalar BlockchainNetwork.iotNode[9] AverageBadServicesAt_1760 1.8571428571429
scalar BlockchainNetwork.iotNode[0] AverageBadServicesAt_1770 1.8571428571429
scalar BlockchainNetwork.iotNode[1] AverageBadServicesAt_1770 1.8571428571429
scalar BlockchainNetwork.iotNode[2] AverageBadServicesAt_1770 1.8571428571429
scalar BlockchainNetwork.iotNode[3] AverageBadServicesAt_1770 1.8571428571429
scalar BlockchainNetwork.iotNode[4] AverageBadServicesAt_1770 1.8571428571429
scalar BlockchainNetwork.iotNode[5] AverageBadServicesAt_1770 1.8571428571429
scalar BlockchainNetwork.iotNode[6] AverageBadServicesAt_1770 1.8571428571429
scalar BlockchainNetwork.iotNode[7] AverageBadServicesAt_1770 1.8571428571429
scalar BlockchainNetwork.iotNode[8] AverageBadServicesAt_1770 1.8571428571429
scalar BlockchainNetwork.iotNode[9] AverageBadServicesAt_1770 1.8571428571429
scalar BlockchainNetwork.iotNode[0] AverageBadServicesAt_1780 1.8571428571429
scalar BlockchainNetwork.iotNode[1] AverageBadServicesAt_1780 1.8571428571429
scalar BlockchainNetwork.iotNode[2] AverageBadServicesAt_1780 1.8571428571429
scalar BlockchainNetwork.iotNode[3] AverageBadServicesAt_1780 1.8571428571429
scalar BlockchainNetwork.iotNode[4] AverageBadServicesAt_1780 1.8571428571429
scalar BlockchainNetwork.iotNode[5] AverageBadServicesAt_1780 1.8571428571429
scalar BlockchainNetwork.iotNode[6] AverageBadServicesAt_1780 1.8571428571429
scalar BlockchainNetwork.iotNode[7] AverageBadServicesAt_1780 1.8571428571429
scalar BlockchainNetwork.iotNode[8] AverageBadServicesAt_1780 1.8571428571429
scalar BlockchainNetwork.iotNode[9] AverageBadServicesAt_1780 1.8571428571429
scalar BlockchainNetwork.iotNode[0] AverageBadServicesAt_1790 1.8571428571429
scalar BlockchainNetwork.iotNode[1] AverageBadServicesAt_1790 1.8571428571429
scalar BlockchainNetwork.iotNode[2] AverageBadServicesAt_1790 1.8571428571429
scalar BlockchainNetwork.iotNode[3] AverageBadServicesAt_1790 1.8571428571429
scalar BlockchainNetwork.iotNode[4] AverageBadServicesAt_1790 1.8571428571429
scalar BlockchainNetwork.iotNode[5] AverageBadServicesAt_1790 1.8571428571429
scalar BlockchainNetwork.iotNode[6] AverageBadServicesAt_1790 1.8571428571429
scalar BlockchainNetwork.iotNode[7] AverageBadServicesAt_1790 1.8571428571429
scalar BlockchainNetwork.iotNode[8] AverageBadServicesAt_1790 1.8571428571429
scalar BlockchainNetwork.iotNode[9] AverageBadServicesAt_1790 1.8571428571429
scalar BlockchainNetwork.iotNode[0] AverageBadServicesAt_1800 1.8571428571429
scalar BlockchainNetwork.iotNode[1] AverageBadServicesAt_1800 1.8571428571429
scalar BlockchainNetwork.iotNode[2] AverageBadServicesAt_1800 1.8571428571429
scalar BlockchainNetwork.iotNode[3] AverageBadServicesAt_1800 1.8571428571429
scalar BlockchainNetwork.iotNode[4] AverageBadServicesAt_1800 1.8571428571429
scalar BlockchainNetwork.iotNode[5] AverageBadServicesAt_1800 1.8571428571429
scalar BlockchainNetwork.iotNode[6] AverageBadServicesAt_1800 1.8571428571429
scalar BlockchainNetwork.iotNode[7] AverageBadServicesAt_1800 1.8571428571429
scalar BlockchainNetwork.iotNode[8] AverageBadServicesAt_1800 1.8571428571429
scalar BlockchainNetwork.iotNode[9] AverageBadServicesAt_1800 1.8571428571429
scalar BlockchainNetwork.iotNode[0] AverageBadServicesAt_1810 1.8571428571429
scalar BlockchainNetwork.iotNode[1] AverageBadServicesAt_1810 1.8571428571429
scalar BlockchainNetwork.iotNode[2] AverageBadServicesAt_1810 1.8571428571429
scalar BlockchainNetwork.iotNode[3] AverageBadServicesAt_1810 1.8571428571429
scalar BlockchainNetwork.iotNode[4] AverageBadServicesAt_1810 1.8571428571429
scalar BlockchainNetwork.iotNode[5] AverageBadServicesAt_1810 1.8571428571429
scalar BlockchainNetwork.iotNode[6] AverageBadServicesAt_1810 1.8571428571429
scalar BlockchainNetwork.iotNode[7] AverageBadServicesAt_1810 1.8571428571429
scalar BlockchainNetwork.iotNode[8] AverageBadServicesAt_1810 1.8571428571429
scalar BlockchainNetwork.iotNode[9] AverageBadServicesAt_1810 1.8571428571429
scalar BlockchainNetwork.iotNode[0] AverageBadServicesAt_1820 1.8571428571429
scalar BlockchainNetwork.iotNode[1] AverageBadServicesAt_1820 1.8571428571429
scalar BlockchainNetwork.iotNode[2] AverageBadServicesAt_1820 1.8571428571429
scalar BlockchainNetwork.iotNode[3] AverageBadServicesAt_1820 1.8571428571429
scalar BlockchainNetwork.iotNode[4] AverageBadServicesAt_1820 1.8571428571429
scalar BlockchainNetwork.iotNode[5] AverageBadServicesAt_1820 1.8571428571429
scalar BlockchainNetwork.iotNode[6] AverageBadServicesAt_1820 1.8571428571429
scalar BlockchainNetwork.iotNode[7] AverageBadServicesAt_1820 1.8571428571429
scalar BlockchainNetwork.iotNode[8] AverageBadServicesAt_1820 1.8571428571429
scalar BlockchainNetwork.iotNode[9] AverageBadServicesAt_1820 1.8571428571429
scalar BlockchainNetwork.iotNode[0] AverageBadServicesAt_1830 1.8571428571429
scalar BlockchainNetwork.iotNode[1] AverageBadServicesAt_1830 1.8571428571429
scalar BlockchainNetwork.iotNode[2] AverageBadServicesAt_1830 1.8571428571429
scalar BlockchainNetwork.iotNode[3] AverageBadServicesAt_1830 1.8571428571429
scalar BlockchainNetwork.iotNode[4] AverageBadServicesAt_1830 1.8571428571429
scalar BlockchainNetwork.iotNode[5] AverageBadServicesAt_1830 1.8571428571429
scalar BlockchainNetwork.iotNode[6] AverageBadServicesAt_1830 1.8571428571429
scalar BlockchainNetwork.iotNode[7] AverageBadServicesAt_1830 1.8571428571429
scalar BlockchainNetwork.iotNode[8] AverageBadServicesAt_1830 1.8571428571429
scalar BlockchainNetwork.iotNode[9] AverageBadServicesAt_1830 1.8571428571429
scalar BlockchainNetwork.iotNode[0] AverageBadServicesAt_1840 1.8571428571429
scalar BlockchainNetwork.iotNode[1] AverageBadServicesAt_1840 1.8571428571429
scalar BlockchainNetwork.iotNode[2] AverageBadServicesAt_1840 1.8571428571429
scalar BlockchainNetwork.iotNode[3] AverageBadServicesAt_1840 1.8571428571429
scalar BlockchainNetwork.iotNode[4] AverageBadServicesAt_1840 1.8571428571429
scalar BlockchainNetwork.iotNode[5] AverageBadServicesAt_1840 1.8571428571429
scalar BlockchainNetwork.iotNode[6] AverageBadServicesAt_1840 1.8571428571429
scalar BlockchainNetwork.iotNode[7] AverageBadServicesAt_1840 1.8571428571429
scalar BlockchainNetwork.iotNode[8] AverageBadServicesAt_1840 1.8571428571429
scalar BlockchainNetwork.iotNode[9] AverageBadServicesAt_1840 1.8571428571429
scalar BlockchainNetwork.iotNode[0] AverageBadServicesAt_1850 1.8571428571429
scalar BlockchainNetwork.iotNode[1] AverageBadServicesAt_1850 1.8571428571429
scalar BlockchainNetwork.iotNode[2] AverageBadServicesAt_1850 1.8571428571429
scalar BlockchainNetwork.iotNode[3] AverageBadServicesAt_1850 1.8571428571429
scalar BlockchainNetwork.iotNode[4] AverageBadServicesAt_1850 1.8571428571429
scalar BlockchainNetwork.iotNode[5] AverageBadServicesAt_1850 1.8571428571429
scalar BlockchainNetwork.iotNode[6] AverageBadServicesAt_1850 1.8571428571429
scalar BlockchainNetwork.iotNode[7] AverageBadServicesAt_1850 1.8571428571429
scalar BlockchainNetwork.iotNode[8] AverageBadServicesAt_1850 1.8571428571429
scalar BlockchainNetwork.iotNode[9] AverageBadServicesAt_1850 1.8571428571429
par BlockchainNetwork.iotNode[0] typename "\"src.IoTNode\""
par BlockchainNetwork.iotNode[0] maliciousNodePercentage 0.3
scalar BlockchainNetwork.iotNode[0] TrustOf_11_in_2 0.25769778104778
scalar BlockchainNetwork.iotNode[0] TrustOf_10_in_2 0.22437968732831
scalar BlockchainNetwork.iotNode[0] TrustOf_8_in_2 0.29833990412071
scalar BlockchainNetwork.iotNode[0] TrustOf_7_in_2 0.72345422932814
scalar BlockchainNetwork.iotNode[0] TrustOf_6_in_2 0.32288937625271
scalar BlockchainNetwork.iotNode[0] TrustOf_4_in_2 0
scalar BlockchainNetwork.iotNode[0] TrustOf_3_in_2 0
scalar BlockchainNetwork.iotNode[0] TrustOf_5_in_2 0.93301301695983
scalar BlockchainNetwork.iotNode[0] TrustOf_9_in_2 0
scalar BlockchainNetwork.iotNode[0] FinalBadServicesReceived 2
scalar BlockchainNetwork.iotNode[0] FinalAverageBadServices 1.8571428571429
par BlockchainNetwork.iotNode[1] typename "\"src.IoTNode\""
par BlockchainNetwork.iotNode[1] maliciousNodePercentage 0.3
scalar BlockchainNetwork.iotNode[1] TrustOf_11_in_3 0.129043881671
scalar BlockchainNetwork.iotNode[1] TrustOf_10_in_3 0.11303110842637
scalar BlockchainNetwork.iotNode[1] TrustOf_8_in_3 0.13903435699039
scalar BlockchainNetwork.iotNode[1] TrustOf_6_in_3 0.12135669014996
scalar BlockchainNetwork.iotNode[1] TrustOf_4_in_3 0
scalar BlockchainNetwork.iotNode[1] TrustOf_7_in_3 0.14896602293525
scalar BlockchainNetwork.iotNode[1] TrustOf_5_in_3 0.14873348556404
scalar BlockchainNetwork.iotNode[1] TrustOf_2_in_3 0.1386527533842
scalar BlockchainNetwork.iotNode[1] TrustOf_9_in_3 0
scalar BlockchainNetwork.iotNode[1] FinalAverageBadServices 1.8571428571429
par BlockchainNetwork.iotNode[2] typename "\"src.IoTNode\""
par BlockchainNetwork.iotNode[2] maliciousNodePercentage 0.3
scalar BlockchainNetwork.iotNode[2] TrustOf_11_in_4 0.022393917007888
scalar BlockchainNetwork.iotNode[2] TrustOf_10_in_4 0.1281366165042
scalar BlockchainNetwork.iotNode[2] TrustOf_8_in_4 0.13226956027387
scalar BlockchainNetwork.iotNode[2] TrustOf_7_in_4 0.15035661262813
scalar BlockchainNetwork.iotNode[2] TrustOf_6_in_4 0.12135669014996
scalar BlockchainNetwork.iotNode[2] TrustOf_3_in_4 0
scalar BlockchainNetwork.iotNode[2] TrustOf_5_in_4 0.1501214002338
scalar BlockchainNetwork.iotNode[2] TrustOf_2_in_4 0.14020242877863
scalar BlockchainNetwork.iotNode[2] TrustOf_9_in_4 0
scalar BlockchainNetwork.iotNode[2] FinalAverageBadServices 1.8571428571429
par BlockchainNetwork.iotNode[3] typename "\"src.IoTNode\""
par BlockchainNetwork.iotNode[3] maliciousNodePercentage 0.3
scalar BlockchainNetwork.iotNode[3] TrustOf_11_in_5 0.58303461698964
scalar BlockchainNetwork.iotNode[3] TrustOf_10_in_5 0.22437968732831
scalar BlockchainNetwork.iotNode[3] TrustOf_8_in_5 0.29833990412071
scalar BlockchainNetwork.iotNode[3] TrustOf_7_in_5 0.94583632048404
scalar BlockchainNetwork.iotNode[3] TrustOf_6_in_5 0.32288937625271
scalar BlockchainNetwork.iotNode[3] TrustOf_4_in_5 0
scalar BlockchainNetwork.iotNode[3] TrustOf_3_in_5 0
scalar BlockchainNetwork.iotNode[3] TrustOf_2_in_5 0.73594814097879
scalar BlockchainNetwork.iotNode[3] TrustOf_9_in_5 0
scalar BlockchainNetwork.iotNode[3] FinalBadServicesReceived 1
scalar BlockchainNetwork.iotNode[3] FinalAverageBadServices 1.8571428571429
par BlockchainNetwork.iotNode[4] typename "\"src.IoTNode\""
par BlockchainNetwork.iotNode[4] maliciousNodePercentage 0.3
scalar BlockchainNetwork.iotNode[4] TrustOf_11_in_6 0.25769778104778
scalar BlockchainNetwork.iotNode[4] TrustOf_10_in_6 0.22437968732831
scalar BlockchainNetwork.iotNode[4] TrustOf_8_in_6 0.73765276364913
scalar BlockchainNetwork.iotNode[4] TrustOf_7_in_6 0.91883153543608
scalar BlockchainNetwork.iotNode[4] TrustOf_5_in_6 0.9337618005171
scalar BlockchainNetwork.iotNode[4] TrustOf_4_in_6 0
scalar BlockchainNetwork.iotNode[4] TrustOf_3_in_6 0
scalar BlockchainNetwork.iotNode[4] TrustOf_2_in_6 0.72739871338347
scalar BlockchainNetwork.iotNode[4] TrustOf_9_in_6 0
scalar BlockchainNetwork.iotNode[4] FinalBadServicesReceived 2
scalar BlockchainNetwork.iotNode[4] FinalAverageBadServices 1.8571428571429
par BlockchainNetwork.iotNode[5] typename "\"src.IoTNode\""
par BlockchainNetwork.iotNode[5] maliciousNodePercentage 0.3
scalar BlockchainNetwork.iotNode[5] TrustOf_11_in_7 0.25769778104778
scalar BlockchainNetwork.iotNode[5] TrustOf_10_in_7 0.22437968732831
scalar BlockchainNetwork.iotNode[5] TrustOf_8_in_7 0.29833990412071
scalar BlockchainNetwork.iotNode[5] TrustOf_6_in_7 0.32288937625271
scalar BlockchainNetwork.iotNode[5] TrustOf_5_in_7 0.9330972727818
scalar BlockchainNetwork.iotNode[5] TrustOf_4_in_7 0
scalar BlockchainNetwork.iotNode[5] TrustOf_3_in_7 0
scalar BlockchainNetwork.iotNode[5] TrustOf_2_in_7 0.71310343552533
scalar BlockchainNetwork.iotNode[5] TrustOf_9_in_7 0
scalar BlockchainNetwork.iotNode[5] FinalBadServicesReceived 2
scalar BlockchainNetwork.iotNode[5] FinalAverageBadServices 1.8571428571429
par BlockchainNetwork.iotNode[6] typename "\"src.IoTNode\""
par BlockchainNetwork.iotNode[6] maliciousNodePercentage 0.3
scalar BlockchainNetwork.iotNode[6] TrustOf_11_in_8 0.55950015265458
scalar BlockchainNetwork.iotNode[6] TrustOf_10_in_8 0.22437968732831
scalar BlockchainNetwork.iotNode[6] TrustOf_9_in_8 0
scalar BlockchainNetwork.iotNode[6] TrustOf_7_in_8 0.9116817181424
scalar BlockchainNetwork.iotNode[6] TrustOf_6_in_8 0.32288937625271
scalar BlockchainNetwork.iotNode[6] TrustOf_5_in_8 0.93194205588972
scalar BlockchainNetwork.iotNode[6] TrustOf_4_in_8 0
scalar BlockchainNetwork.iotNode[6] TrustOf_3_in_8 0
scalar BlockchainNetwork.iotNode[6] TrustOf_2_in_8 0.70207391068171
scalar BlockchainNetwork.iotNode[6] FinalBadServicesReceived 1
scalar BlockchainNetwork.iotNode[6] FinalAverageBadServices 1.8571428571429
par BlockchainNetwork.iotNode[7] typename "\"src.IoTNode\""
par BlockchainNetwork.iotNode[7] maliciousNodePercentage 0.3
scalar BlockchainNetwork.iotNode[7] TrustOf_11_in_9 0.14047795535623
scalar BlockchainNetwork.iotNode[7] TrustOf_10_in_9 0.1011114840396
scalar BlockchainNetwork.iotNode[7] TrustOf_8_in_9 0.14652840849085
scalar BlockchainNetwork.iotNode[7] TrustOf_7_in_9 0.15223378175464
scalar BlockchainNetwork.iotNode[7] TrustOf_6_in_9 0.027460955184199
scalar BlockchainNetwork.iotNode[7] TrustOf_4_in_9 0
scalar BlockchainNetwork.iotNode[7] TrustOf_3_in_9 0
scalar BlockchainNetwork.iotNode[7] TrustOf_5_in_9 0.15212858987505
scalar BlockchainNetwork.iotNode[7] TrustOf_2_in_9 0.14749776549011
scalar BlockchainNetwork.iotNode[7] FinalAverageBadServices 1.8571428571429
par BlockchainNetwork.iotNode[8] typename "\"src.IoTNode\""
par BlockchainNetwork.iotNode[8] maliciousNodePercentage 0.3
scalar BlockchainNetwork.iotNode[8] TrustOf_11_in_10 0.25769778104778
scalar BlockchainNetwork.iotNode[8] TrustOf_8_in_10 0.79009743493484
scalar BlockchainNetwork.iotNode[8] TrustOf_7_in_10 0.94562529433396
scalar BlockchainNetwork.iotNode[8] TrustOf_6_in_10 0.66450409094841
scalar BlockchainNetwork.iotNode[8] TrustOf_4_in_10 0
scalar BlockchainNetwork.iotNode[8] TrustOf_3_in_10 0
scalar BlockchainNetwork.iotNode[8] TrustOf_5_in_10 0.91207617576007
scalar BlockchainNetwork.iotNode[8] TrustOf_2_in_10 0.68254654322221
scalar BlockchainNetwork.iotNode[8] TrustOf_9_in_10 0
scalar BlockchainNetwork.iotNode[8] FinalBadServicesReceived 4
scalar BlockchainNetwork.iotNode[8] FinalAverageBadServices 1.8571428571429
par BlockchainNetwork.iotNode[9] typename "\"src.IoTNode\""
par BlockchainNetwork.iotNode[9] maliciousNodePercentage 0.3
scalar BlockchainNetwork.iotNode[9] TrustOf_10_in_11 0.68461817861056
scalar BlockchainNetwork.iotNode[9] TrustOf_8_in_11 0.76713801599017
scalar BlockchainNetwork.iotNode[9] TrustOf_7_in_11 0.72345422932814
scalar BlockchainNetwork.iotNode[9] TrustOf_6_in_11 0.32288937625271
scalar BlockchainNetwork.iotNode[9] TrustOf_4_in_11 0
scalar BlockchainNetwork.iotNode[9] TrustOf_3_in_11 0
scalar BlockchainNetwork.iotNode[9] TrustOf_5_in_11 0.93243537608207
scalar BlockchainNetwork.iotNode[9] TrustOf_2_in_11 0.62710072790759
scalar BlockchainNetwork.iotNode[9] TrustOf_9_in_11 0
scalar BlockchainNetwork.iotNode[9] FinalBadServicesReceived 1
scalar BlockchainNetwork.iotNode[9] FinalAverageBadServices 1.8571428571429
par BlockchainNetwork typename "\"src.BlockchainNetwork\""
par BlockchainNetwork numNodes 10
par BlockchainNetwork maliciousNodePercentage 0.3

