version 3
run General-0-20250805-18:27:24-9372
attr configname General
attr datetime 20250805-18:27:24
attr datetimef 20250805-182724
attr experiment General
attr inifile omnetpp.ini
attr iterationvars ""
attr iterationvarsd ""
attr iterationvarsf ""
attr measurement ""
attr network BlockchainNetwork
attr processid 9372
attr repetition 0
attr replication #0
attr resultdir results
attr runnumber 0
attr seedset 42
config network BlockchainNetwork
config *.iotNode*.inoutGateSize 10
config sim-time-limit 2000s
config *.iotNode*.serviceInterval "uniform(1, 5)"
config *.numNodes 10
config **.maliciousNodePercentage 0.3
config seed-set 42

scalar BlockchainNetwork.iotNode[0] AverageBadServicesAt_10 1.4285714285714
scalar BlockchainNetwork.iotNode[1] AverageBadServicesAt_10 1.4285714285714
scalar BlockchainNetwork.iotNode[2] AverageBadServicesAt_10 1.4285714285714
scalar BlockchainNetwork.iotNode[3] AverageBadServicesAt_10 1.4285714285714
scalar BlockchainNetwork.iotNode[4] AverageBadServicesAt_10 1.4285714285714
scalar BlockchainNetwork.iotNode[5] AverageBadServicesAt_10 1.4285714285714
scalar BlockchainNetwork.iotNode[6] AverageBadServicesAt_10 1.4285714285714
scalar BlockchainNetwork.iotNode[7] AverageBadServicesAt_10 1.4285714285714
scalar BlockchainNetwork.iotNode[8] AverageBadServicesAt_10 1.4285714285714
scalar BlockchainNetwork.iotNode[9] AverageBadServicesAt_10 1.4285714285714
scalar BlockchainNetwork.iotNode[0] AverageBadServicesAt_20 2
scalar BlockchainNetwork.iotNode[1] AverageBadServicesAt_20 2
scalar BlockchainNetwork.iotNode[2] AverageBadServicesAt_20 2
scalar BlockchainNetwork.iotNode[3] AverageBadServicesAt_20 2
scalar BlockchainNetwork.iotNode[4] AverageBadServicesAt_20 2
scalar BlockchainNetwork.iotNode[5] AverageBadServicesAt_20 2
scalar BlockchainNetwork.iotNode[6] AverageBadServicesAt_20 2
scalar BlockchainNetwork.iotNode[7] AverageBadServicesAt_20 2
scalar BlockchainNetwork.iotNode[8] AverageBadServicesAt_20 2
scalar BlockchainNetwork.iotNode[9] AverageBadServicesAt_20 2
scalar BlockchainNetwork.iotNode[0] AverageBadServicesAt_30 2.1428571428571
scalar BlockchainNetwork.iotNode[1] AverageBadServicesAt_30 2.1428571428571
scalar BlockchainNetwork.iotNode[2] AverageBadServicesAt_30 2.1428571428571
scalar BlockchainNetwork.iotNode[3] AverageBadServicesAt_30 2.1428571428571
scalar BlockchainNetwork.iotNode[4] AverageBadServicesAt_30 2.1428571428571
scalar BlockchainNetwork.iotNode[5] AverageBadServicesAt_30 2.1428571428571
scalar BlockchainNetwork.iotNode[6] AverageBadServicesAt_30 2.1428571428571
scalar BlockchainNetwork.iotNode[7] AverageBadServicesAt_30 2.1428571428571
scalar BlockchainNetwork.iotNode[8] AverageBadServicesAt_30 2.1428571428571
scalar BlockchainNetwork.iotNode[9] AverageBadServicesAt_30 2.1428571428571
scalar BlockchainNetwork.iotNode[0] AverageBadServicesAt_40 2.1428571428571
scalar BlockchainNetwork.iotNode[1] AverageBadServicesAt_40 2.1428571428571
scalar BlockchainNetwork.iotNode[2] AverageBadServicesAt_40 2.1428571428571
scalar BlockchainNetwork.iotNode[3] AverageBadServicesAt_40 2.1428571428571
scalar BlockchainNetwork.iotNode[4] AverageBadServicesAt_40 2.1428571428571
scalar BlockchainNetwork.iotNode[5] AverageBadServicesAt_40 2.1428571428571
scalar BlockchainNetwork.iotNode[6] AverageBadServicesAt_40 2.1428571428571
scalar BlockchainNetwork.iotNode[7] AverageBadServicesAt_40 2.1428571428571
scalar BlockchainNetwork.iotNode[8] AverageBadServicesAt_40 2.1428571428571
scalar BlockchainNetwork.iotNode[9] AverageBadServicesAt_40 2.1428571428571
scalar BlockchainNetwork.iotNode[0] AverageBadServicesAt_50 2.1428571428571
scalar BlockchainNetwork.iotNode[1] AverageBadServicesAt_50 2.1428571428571
scalar BlockchainNetwork.iotNode[2] AverageBadServicesAt_50 2.1428571428571
scalar BlockchainNetwork.iotNode[3] AverageBadServicesAt_50 2.1428571428571
scalar BlockchainNetwork.iotNode[4] AverageBadServicesAt_50 2.1428571428571
scalar BlockchainNetwork.iotNode[5] AverageBadServicesAt_50 2.1428571428571
scalar BlockchainNetwork.iotNode[6] AverageBadServicesAt_50 2.1428571428571
scalar BlockchainNetwork.iotNode[7] AverageBadServicesAt_50 2.1428571428571
scalar BlockchainNetwork.iotNode[8] AverageBadServicesAt_50 2.1428571428571
scalar BlockchainNetwork.iotNode[9] AverageBadServicesAt_50 2.1428571428571
scalar BlockchainNetwork.iotNode[0] AverageBadServicesAt_60 2.1428571428571
scalar BlockchainNetwork.iotNode[1] AverageBadServicesAt_60 2.1428571428571
scalar BlockchainNetwork.iotNode[2] AverageBadServicesAt_60 2.1428571428571
scalar BlockchainNetwork.iotNode[3] AverageBadServicesAt_60 2.1428571428571
scalar BlockchainNetwork.iotNode[4] AverageBadServicesAt_60 2.1428571428571
scalar BlockchainNetwork.iotNode[5] AverageBadServicesAt_60 2.1428571428571
scalar BlockchainNetwork.iotNode[6] AverageBadServicesAt_60 2.1428571428571
scalar BlockchainNetwork.iotNode[7] AverageBadServicesAt_60 2.1428571428571
scalar BlockchainNetwork.iotNode[8] AverageBadServicesAt_60 2.1428571428571
scalar BlockchainNetwork.iotNode[9] AverageBadServicesAt_60 2.1428571428571
scalar BlockchainNetwork.iotNode[0] AverageBadServicesAt_70 2.1428571428571
scalar BlockchainNetwork.iotNode[1] AverageBadServicesAt_70 2.1428571428571
scalar BlockchainNetwork.iotNode[2] AverageBadServicesAt_70 2.1428571428571
scalar BlockchainNetwork.iotNode[3] AverageBadServicesAt_70 2.1428571428571
scalar BlockchainNetwork.iotNode[4] AverageBadServicesAt_70 2.1428571428571
scalar BlockchainNetwork.iotNode[5] AverageBadServicesAt_70 2.1428571428571
scalar BlockchainNetwork.iotNode[6] AverageBadServicesAt_70 2.1428571428571
scalar BlockchainNetwork.iotNode[7] AverageBadServicesAt_70 2.1428571428571
scalar BlockchainNetwork.iotNode[8] AverageBadServicesAt_70 2.1428571428571
scalar BlockchainNetwork.iotNode[9] AverageBadServicesAt_70 2.1428571428571
scalar BlockchainNetwork.iotNode[0] AverageBadServicesAt_80 2.1428571428571
scalar BlockchainNetwork.iotNode[1] AverageBadServicesAt_80 2.1428571428571
scalar BlockchainNetwork.iotNode[2] AverageBadServicesAt_80 2.1428571428571
scalar BlockchainNetwork.iotNode[3] AverageBadServicesAt_80 2.1428571428571
scalar BlockchainNetwork.iotNode[4] AverageBadServicesAt_80 2.1428571428571
scalar BlockchainNetwork.iotNode[5] AverageBadServicesAt_80 2.1428571428571
scalar BlockchainNetwork.iotNode[6] AverageBadServicesAt_80 2.1428571428571
scalar BlockchainNetwork.iotNode[7] AverageBadServicesAt_80 2.1428571428571
scalar BlockchainNetwork.iotNode[8] AverageBadServicesAt_80 2.1428571428571
scalar BlockchainNetwork.iotNode[9] AverageBadServicesAt_80 2.1428571428571
scalar BlockchainNetwork.iotNode[0] AverageBadServicesAt_90 2.1428571428571
scalar BlockchainNetwork.iotNode[1] AverageBadServicesAt_90 2.1428571428571
scalar BlockchainNetwork.iotNode[2] AverageBadServicesAt_90 2.1428571428571
scalar BlockchainNetwork.iotNode[3] AverageBadServicesAt_90 2.1428571428571
scalar BlockchainNetwork.iotNode[4] AverageBadServicesAt_90 2.1428571428571
scalar BlockchainNetwork.iotNode[5] AverageBadServicesAt_90 2.1428571428571
scalar BlockchainNetwork.iotNode[6] AverageBadServicesAt_90 2.1428571428571
scalar BlockchainNetwork.iotNode[7] AverageBadServicesAt_90 2.1428571428571
scalar BlockchainNetwork.iotNode[8] AverageBadServicesAt_90 2.1428571428571
scalar BlockchainNetwork.iotNode[9] AverageBadServicesAt_90 2.1428571428571
scalar BlockchainNetwork.iotNode[0] AverageBadServicesAt_100 2.1428571428571
scalar BlockchainNetwork.iotNode[1] AverageBadServicesAt_100 2.1428571428571
scalar BlockchainNetwork.iotNode[2] AverageBadServicesAt_100 2.1428571428571
scalar BlockchainNetwork.iotNode[3] AverageBadServicesAt_100 2.1428571428571
scalar BlockchainNetwork.iotNode[4] AverageBadServicesAt_100 2.1428571428571
scalar BlockchainNetwork.iotNode[5] AverageBadServicesAt_100 2.1428571428571
scalar BlockchainNetwork.iotNode[6] AverageBadServicesAt_100 2.1428571428571
scalar BlockchainNetwork.iotNode[7] AverageBadServicesAt_100 2.1428571428571
scalar BlockchainNetwork.iotNode[8] AverageBadServicesAt_100 2.1428571428571
scalar BlockchainNetwork.iotNode[9] AverageBadServicesAt_100 2.1428571428571
scalar BlockchainNetwork.iotNode[0] AverageBadServicesAt_110 2.2857142857143
scalar BlockchainNetwork.iotNode[1] AverageBadServicesAt_110 2.2857142857143
scalar BlockchainNetwork.iotNode[2] AverageBadServicesAt_110 2.2857142857143
scalar BlockchainNetwork.iotNode[3] AverageBadServicesAt_110 2.2857142857143
scalar BlockchainNetwork.iotNode[4] AverageBadServicesAt_110 2.2857142857143
scalar BlockchainNetwork.iotNode[5] AverageBadServicesAt_110 2.2857142857143
scalar BlockchainNetwork.iotNode[6] AverageBadServicesAt_110 2.2857142857143
scalar BlockchainNetwork.iotNode[7] AverageBadServicesAt_110 2.2857142857143
scalar BlockchainNetwork.iotNode[8] AverageBadServicesAt_110 2.2857142857143
scalar BlockchainNetwork.iotNode[9] AverageBadServicesAt_110 2.2857142857143
scalar BlockchainNetwork.iotNode[0] AverageBadServicesAt_120 2.2857142857143
scalar BlockchainNetwork.iotNode[1] AverageBadServicesAt_120 2.2857142857143
scalar BlockchainNetwork.iotNode[2] AverageBadServicesAt_120 2.2857142857143
scalar BlockchainNetwork.iotNode[3] AverageBadServicesAt_120 2.2857142857143
scalar BlockchainNetwork.iotNode[4] AverageBadServicesAt_120 2.2857142857143
scalar BlockchainNetwork.iotNode[5] AverageBadServicesAt_120 2.2857142857143
scalar BlockchainNetwork.iotNode[6] AverageBadServicesAt_120 2.2857142857143
scalar BlockchainNetwork.iotNode[7] AverageBadServicesAt_120 2.2857142857143
scalar BlockchainNetwork.iotNode[8] AverageBadServicesAt_120 2.2857142857143
scalar BlockchainNetwork.iotNode[9] AverageBadServicesAt_120 2.2857142857143
scalar BlockchainNetwork.iotNode[0] AverageBadServicesAt_130 2.2857142857143
scalar BlockchainNetwork.iotNode[1] AverageBadServicesAt_130 2.2857142857143
scalar BlockchainNetwork.iotNode[2] AverageBadServicesAt_130 2.2857142857143
scalar BlockchainNetwork.iotNode[3] AverageBadServicesAt_130 2.2857142857143
scalar BlockchainNetwork.iotNode[4] AverageBadServicesAt_130 2.2857142857143
scalar BlockchainNetwork.iotNode[5] AverageBadServicesAt_130 2.2857142857143
scalar BlockchainNetwork.iotNode[6] AverageBadServicesAt_130 2.2857142857143
scalar BlockchainNetwork.iotNode[7] AverageBadServicesAt_130 2.2857142857143
scalar BlockchainNetwork.iotNode[8] AverageBadServicesAt_130 2.2857142857143
scalar BlockchainNetwork.iotNode[9] AverageBadServicesAt_130 2.2857142857143
scalar BlockchainNetwork.iotNode[0] AverageBadServicesAt_140 2.2857142857143
scalar BlockchainNetwork.iotNode[1] AverageBadServicesAt_140 2.2857142857143
scalar BlockchainNetwork.iotNode[2] AverageBadServicesAt_140 2.2857142857143
scalar BlockchainNetwork.iotNode[3] AverageBadServicesAt_140 2.2857142857143
scalar BlockchainNetwork.iotNode[4] AverageBadServicesAt_140 2.2857142857143
scalar BlockchainNetwork.iotNode[5] AverageBadServicesAt_140 2.2857142857143
scalar BlockchainNetwork.iotNode[6] AverageBadServicesAt_140 2.2857142857143
scalar BlockchainNetwork.iotNode[7] AverageBadServicesAt_140 2.2857142857143
scalar BlockchainNetwork.iotNode[8] AverageBadServicesAt_140 2.2857142857143
scalar BlockchainNetwork.iotNode[9] AverageBadServicesAt_140 2.2857142857143
scalar BlockchainNetwork.iotNode[0] AverageBadServicesAt_150 2.2857142857143
scalar BlockchainNetwork.iotNode[1] AverageBadServicesAt_150 2.2857142857143
scalar BlockchainNetwork.iotNode[2] AverageBadServicesAt_150 2.2857142857143
scalar BlockchainNetwork.iotNode[3] AverageBadServicesAt_150 2.2857142857143
scalar BlockchainNetwork.iotNode[4] AverageBadServicesAt_150 2.2857142857143
scalar BlockchainNetwork.iotNode[5] AverageBadServicesAt_150 2.2857142857143
scalar BlockchainNetwork.iotNode[6] AverageBadServicesAt_150 2.2857142857143
scalar BlockchainNetwork.iotNode[7] AverageBadServicesAt_150 2.2857142857143
scalar BlockchainNetwork.iotNode[8] AverageBadServicesAt_150 2.2857142857143
scalar BlockchainNetwork.iotNode[9] AverageBadServicesAt_150 2.2857142857143
scalar BlockchainNetwork.iotNode[0] AverageBadServicesAt_160 2.2857142857143
scalar BlockchainNetwork.iotNode[1] AverageBadServicesAt_160 2.2857142857143
scalar BlockchainNetwork.iotNode[2] AverageBadServicesAt_160 2.2857142857143
scalar BlockchainNetwork.iotNode[3] AverageBadServicesAt_160 2.2857142857143
scalar BlockchainNetwork.iotNode[4] AverageBadServicesAt_160 2.2857142857143
scalar BlockchainNetwork.iotNode[5] AverageBadServicesAt_160 2.2857142857143
scalar BlockchainNetwork.iotNode[6] AverageBadServicesAt_160 2.2857142857143
scalar BlockchainNetwork.iotNode[7] AverageBadServicesAt_160 2.2857142857143
scalar BlockchainNetwork.iotNode[8] AverageBadServicesAt_160 2.2857142857143
scalar BlockchainNetwork.iotNode[9] AverageBadServicesAt_160 2.2857142857143
scalar BlockchainNetwork.iotNode[0] AverageBadServicesAt_170 2.2857142857143
scalar BlockchainNetwork.iotNode[1] AverageBadServicesAt_170 2.2857142857143
scalar BlockchainNetwork.iotNode[2] AverageBadServicesAt_170 2.2857142857143
scalar BlockchainNetwork.iotNode[3] AverageBadServicesAt_170 2.2857142857143
scalar BlockchainNetwork.iotNode[4] AverageBadServicesAt_170 2.2857142857143
scalar BlockchainNetwork.iotNode[5] AverageBadServicesAt_170 2.2857142857143
scalar BlockchainNetwork.iotNode[6] AverageBadServicesAt_170 2.2857142857143
scalar BlockchainNetwork.iotNode[7] AverageBadServicesAt_170 2.2857142857143
scalar BlockchainNetwork.iotNode[8] AverageBadServicesAt_170 2.2857142857143
scalar BlockchainNetwork.iotNode[9] AverageBadServicesAt_170 2.2857142857143
scalar BlockchainNetwork.iotNode[0] AverageBadServicesAt_180 2.2857142857143
scalar BlockchainNetwork.iotNode[1] AverageBadServicesAt_180 2.2857142857143
scalar BlockchainNetwork.iotNode[2] AverageBadServicesAt_180 2.2857142857143
scalar BlockchainNetwork.iotNode[3] AverageBadServicesAt_180 2.2857142857143
scalar BlockchainNetwork.iotNode[4] AverageBadServicesAt_180 2.2857142857143
scalar BlockchainNetwork.iotNode[5] AverageBadServicesAt_180 2.2857142857143
scalar BlockchainNetwork.iotNode[6] AverageBadServicesAt_180 2.2857142857143
scalar BlockchainNetwork.iotNode[7] AverageBadServicesAt_180 2.2857142857143
scalar BlockchainNetwork.iotNode[8] AverageBadServicesAt_180 2.2857142857143
scalar BlockchainNetwork.iotNode[9] AverageBadServicesAt_180 2.2857142857143
scalar BlockchainNetwork.iotNode[0] AverageBadServicesAt_190 2.2857142857143
scalar BlockchainNetwork.iotNode[1] AverageBadServicesAt_190 2.2857142857143
scalar BlockchainNetwork.iotNode[2] AverageBadServicesAt_190 2.2857142857143
scalar BlockchainNetwork.iotNode[3] AverageBadServicesAt_190 2.2857142857143
scalar BlockchainNetwork.iotNode[4] AverageBadServicesAt_190 2.2857142857143
scalar BlockchainNetwork.iotNode[5] AverageBadServicesAt_190 2.2857142857143
scalar BlockchainNetwork.iotNode[6] AverageBadServicesAt_190 2.2857142857143
scalar BlockchainNetwork.iotNode[7] AverageBadServicesAt_190 2.2857142857143
scalar BlockchainNetwork.iotNode[8] AverageBadServicesAt_190 2.2857142857143
scalar BlockchainNetwork.iotNode[9] AverageBadServicesAt_190 2.2857142857143
scalar BlockchainNetwork.iotNode[0] AverageBadServicesAt_200 2.2857142857143
scalar BlockchainNetwork.iotNode[1] AverageBadServicesAt_200 2.2857142857143
scalar BlockchainNetwork.iotNode[2] AverageBadServicesAt_200 2.2857142857143
scalar BlockchainNetwork.iotNode[3] AverageBadServicesAt_200 2.2857142857143
scalar BlockchainNetwork.iotNode[4] AverageBadServicesAt_200 2.2857142857143
scalar BlockchainNetwork.iotNode[5] AverageBadServicesAt_200 2.2857142857143
scalar BlockchainNetwork.iotNode[6] AverageBadServicesAt_200 2.2857142857143
scalar BlockchainNetwork.iotNode[7] AverageBadServicesAt_200 2.2857142857143
scalar BlockchainNetwork.iotNode[8] AverageBadServicesAt_200 2.2857142857143
scalar BlockchainNetwork.iotNode[9] AverageBadServicesAt_200 2.2857142857143
scalar BlockchainNetwork.iotNode[0] AverageBadServicesAt_210 2.2857142857143
scalar BlockchainNetwork.iotNode[1] AverageBadServicesAt_210 2.2857142857143
scalar BlockchainNetwork.iotNode[2] AverageBadServicesAt_210 2.2857142857143
scalar BlockchainNetwork.iotNode[3] AverageBadServicesAt_210 2.2857142857143
scalar BlockchainNetwork.iotNode[4] AverageBadServicesAt_210 2.2857142857143
scalar BlockchainNetwork.iotNode[5] AverageBadServicesAt_210 2.2857142857143
scalar BlockchainNetwork.iotNode[6] AverageBadServicesAt_210 2.2857142857143
scalar BlockchainNetwork.iotNode[7] AverageBadServicesAt_210 2.2857142857143
scalar BlockchainNetwork.iotNode[8] AverageBadServicesAt_210 2.2857142857143
scalar BlockchainNetwork.iotNode[9] AverageBadServicesAt_210 2.2857142857143
scalar BlockchainNetwork.iotNode[0] AverageBadServicesAt_220 2.2857142857143
scalar BlockchainNetwork.iotNode[1] AverageBadServicesAt_220 2.2857142857143
scalar BlockchainNetwork.iotNode[2] AverageBadServicesAt_220 2.2857142857143
scalar BlockchainNetwork.iotNode[3] AverageBadServicesAt_220 2.2857142857143
scalar BlockchainNetwork.iotNode[4] AverageBadServicesAt_220 2.2857142857143
scalar BlockchainNetwork.iotNode[5] AverageBadServicesAt_220 2.2857142857143
scalar BlockchainNetwork.iotNode[6] AverageBadServicesAt_220 2.2857142857143
scalar BlockchainNetwork.iotNode[7] AverageBadServicesAt_220 2.2857142857143
scalar BlockchainNetwork.iotNode[8] AverageBadServicesAt_220 2.2857142857143
scalar BlockchainNetwork.iotNode[9] AverageBadServicesAt_220 2.2857142857143
scalar BlockchainNetwork.iotNode[0] AverageBadServicesAt_230 2.2857142857143
scalar BlockchainNetwork.iotNode[1] AverageBadServicesAt_230 2.2857142857143
scalar BlockchainNetwork.iotNode[2] AverageBadServicesAt_230 2.2857142857143
scalar BlockchainNetwork.iotNode[3] AverageBadServicesAt_230 2.2857142857143
scalar BlockchainNetwork.iotNode[4] AverageBadServicesAt_230 2.2857142857143
scalar BlockchainNetwork.iotNode[5] AverageBadServicesAt_230 2.2857142857143
scalar BlockchainNetwork.iotNode[6] AverageBadServicesAt_230 2.2857142857143
scalar BlockchainNetwork.iotNode[7] AverageBadServicesAt_230 2.2857142857143
scalar BlockchainNetwork.iotNode[8] AverageBadServicesAt_230 2.2857142857143
scalar BlockchainNetwork.iotNode[9] AverageBadServicesAt_230 2.2857142857143
scalar BlockchainNetwork.iotNode[0] AverageBadServicesAt_240 2.2857142857143
scalar BlockchainNetwork.iotNode[1] AverageBadServicesAt_240 2.2857142857143
scalar BlockchainNetwork.iotNode[2] AverageBadServicesAt_240 2.2857142857143
scalar BlockchainNetwork.iotNode[3] AverageBadServicesAt_240 2.2857142857143
scalar BlockchainNetwork.iotNode[4] AverageBadServicesAt_240 2.2857142857143
scalar BlockchainNetwork.iotNode[5] AverageBadServicesAt_240 2.2857142857143
scalar BlockchainNetwork.iotNode[6] AverageBadServicesAt_240 2.2857142857143
scalar BlockchainNetwork.iotNode[7] AverageBadServicesAt_240 2.2857142857143
scalar BlockchainNetwork.iotNode[8] AverageBadServicesAt_240 2.2857142857143
scalar BlockchainNetwork.iotNode[9] AverageBadServicesAt_240 2.2857142857143
scalar BlockchainNetwork.iotNode[0] AverageBadServicesAt_250 2.2857142857143
scalar BlockchainNetwork.iotNode[1] AverageBadServicesAt_250 2.2857142857143
scalar BlockchainNetwork.iotNode[2] AverageBadServicesAt_250 2.2857142857143
scalar BlockchainNetwork.iotNode[3] AverageBadServicesAt_250 2.2857142857143
scalar BlockchainNetwork.iotNode[4] AverageBadServicesAt_250 2.2857142857143
scalar BlockchainNetwork.iotNode[5] AverageBadServicesAt_250 2.2857142857143
scalar BlockchainNetwork.iotNode[6] AverageBadServicesAt_250 2.2857142857143
scalar BlockchainNetwork.iotNode[7] AverageBadServicesAt_250 2.2857142857143
scalar BlockchainNetwork.iotNode[8] AverageBadServicesAt_250 2.2857142857143
scalar BlockchainNetwork.iotNode[9] AverageBadServicesAt_250 2.2857142857143
scalar BlockchainNetwork.iotNode[0] AverageBadServicesAt_260 2.2857142857143
scalar BlockchainNetwork.iotNode[1] AverageBadServicesAt_260 2.2857142857143
scalar BlockchainNetwork.iotNode[2] AverageBadServicesAt_260 2.2857142857143
scalar BlockchainNetwork.iotNode[3] AverageBadServicesAt_260 2.2857142857143
scalar BlockchainNetwork.iotNode[4] AverageBadServicesAt_260 2.2857142857143
scalar BlockchainNetwork.iotNode[5] AverageBadServicesAt_260 2.2857142857143
scalar BlockchainNetwork.iotNode[6] AverageBadServicesAt_260 2.2857142857143
scalar BlockchainNetwork.iotNode[7] AverageBadServicesAt_260 2.2857142857143
scalar BlockchainNetwork.iotNode[8] AverageBadServicesAt_260 2.2857142857143
scalar BlockchainNetwork.iotNode[9] AverageBadServicesAt_260 2.2857142857143
scalar BlockchainNetwork.iotNode[0] AverageBadServicesAt_270 2.2857142857143
scalar BlockchainNetwork.iotNode[1] AverageBadServicesAt_270 2.2857142857143
scalar BlockchainNetwork.iotNode[2] AverageBadServicesAt_270 2.2857142857143
scalar BlockchainNetwork.iotNode[3] AverageBadServicesAt_270 2.2857142857143
scalar BlockchainNetwork.iotNode[4] AverageBadServicesAt_270 2.2857142857143
scalar BlockchainNetwork.iotNode[5] AverageBadServicesAt_270 2.2857142857143
scalar BlockchainNetwork.iotNode[6] AverageBadServicesAt_270 2.2857142857143
scalar BlockchainNetwork.iotNode[7] AverageBadServicesAt_270 2.2857142857143
scalar BlockchainNetwork.iotNode[8] AverageBadServicesAt_270 2.2857142857143
scalar BlockchainNetwork.iotNode[9] AverageBadServicesAt_270 2.2857142857143
scalar BlockchainNetwork.iotNode[0] AverageBadServicesAt_280 2.2857142857143
scalar BlockchainNetwork.iotNode[1] AverageBadServicesAt_280 2.2857142857143
scalar BlockchainNetwork.iotNode[2] AverageBadServicesAt_280 2.2857142857143
scalar BlockchainNetwork.iotNode[3] AverageBadServicesAt_280 2.2857142857143
scalar BlockchainNetwork.iotNode[4] AverageBadServicesAt_280 2.2857142857143
scalar BlockchainNetwork.iotNode[5] AverageBadServicesAt_280 2.2857142857143
scalar BlockchainNetwork.iotNode[6] AverageBadServicesAt_280 2.2857142857143
scalar BlockchainNetwork.iotNode[7] AverageBadServicesAt_280 2.2857142857143
scalar BlockchainNetwork.iotNode[8] AverageBadServicesAt_280 2.2857142857143
scalar BlockchainNetwork.iotNode[9] AverageBadServicesAt_280 2.2857142857143
scalar BlockchainNetwork.iotNode[0] AverageBadServicesAt_290 2.2857142857143
scalar BlockchainNetwork.iotNode[1] AverageBadServicesAt_290 2.2857142857143
scalar BlockchainNetwork.iotNode[2] AverageBadServicesAt_290 2.2857142857143
scalar BlockchainNetwork.iotNode[3] AverageBadServicesAt_290 2.2857142857143
scalar BlockchainNetwork.iotNode[4] AverageBadServicesAt_290 2.2857142857143
scalar BlockchainNetwork.iotNode[5] AverageBadServicesAt_290 2.2857142857143
scalar BlockchainNetwork.iotNode[6] AverageBadServicesAt_290 2.2857142857143
scalar BlockchainNetwork.iotNode[7] AverageBadServicesAt_290 2.2857142857143
scalar BlockchainNetwork.iotNode[8] AverageBadServicesAt_290 2.2857142857143
scalar BlockchainNetwork.iotNode[9] AverageBadServicesAt_290 2.2857142857143
scalar BlockchainNetwork.iotNode[0] AverageBadServicesAt_300 2.2857142857143
scalar BlockchainNetwork.iotNode[1] AverageBadServicesAt_300 2.2857142857143
scalar BlockchainNetwork.iotNode[2] AverageBadServicesAt_300 2.2857142857143
scalar BlockchainNetwork.iotNode[3] AverageBadServicesAt_300 2.2857142857143
scalar BlockchainNetwork.iotNode[4] AverageBadServicesAt_300 2.2857142857143
scalar BlockchainNetwork.iotNode[5] AverageBadServicesAt_300 2.2857142857143
scalar BlockchainNetwork.iotNode[6] AverageBadServicesAt_300 2.2857142857143
scalar BlockchainNetwork.iotNode[7] AverageBadServicesAt_300 2.2857142857143
scalar BlockchainNetwork.iotNode[8] AverageBadServicesAt_300 2.2857142857143
scalar BlockchainNetwork.iotNode[9] AverageBadServicesAt_300 2.2857142857143
scalar BlockchainNetwork.iotNode[0] AverageBadServicesAt_310 2.2857142857143
scalar BlockchainNetwork.iotNode[1] AverageBadServicesAt_310 2.2857142857143
scalar BlockchainNetwork.iotNode[2] AverageBadServicesAt_310 2.2857142857143
scalar BlockchainNetwork.iotNode[3] AverageBadServicesAt_310 2.2857142857143
scalar BlockchainNetwork.iotNode[4] AverageBadServicesAt_310 2.2857142857143
scalar BlockchainNetwork.iotNode[5] AverageBadServicesAt_310 2.2857142857143
scalar BlockchainNetwork.iotNode[6] AverageBadServicesAt_310 2.2857142857143
scalar BlockchainNetwork.iotNode[7] AverageBadServicesAt_310 2.2857142857143
scalar BlockchainNetwork.iotNode[8] AverageBadServicesAt_310 2.2857142857143
scalar BlockchainNetwork.iotNode[9] AverageBadServicesAt_310 2.2857142857143
scalar BlockchainNetwork.iotNode[0] AverageBadServicesAt_320 2.2857142857143
scalar BlockchainNetwork.iotNode[1] AverageBadServicesAt_320 2.2857142857143
scalar BlockchainNetwork.iotNode[2] AverageBadServicesAt_320 2.2857142857143
scalar BlockchainNetwork.iotNode[3] AverageBadServicesAt_320 2.2857142857143
scalar BlockchainNetwork.iotNode[4] AverageBadServicesAt_320 2.2857142857143
scalar BlockchainNetwork.iotNode[5] AverageBadServicesAt_320 2.2857142857143
scalar BlockchainNetwork.iotNode[6] AverageBadServicesAt_320 2.2857142857143
scalar BlockchainNetwork.iotNode[7] AverageBadServicesAt_320 2.2857142857143
scalar BlockchainNetwork.iotNode[8] AverageBadServicesAt_320 2.2857142857143
scalar BlockchainNetwork.iotNode[9] AverageBadServicesAt_320 2.2857142857143
scalar BlockchainNetwork.iotNode[0] AverageBadServicesAt_330 2.2857142857143
scalar BlockchainNetwork.iotNode[1] AverageBadServicesAt_330 2.2857142857143
scalar BlockchainNetwork.iotNode[2] AverageBadServicesAt_330 2.2857142857143
scalar BlockchainNetwork.iotNode[3] AverageBadServicesAt_330 2.2857142857143
scalar BlockchainNetwork.iotNode[4] AverageBadServicesAt_330 2.2857142857143
scalar BlockchainNetwork.iotNode[5] AverageBadServicesAt_330 2.2857142857143
scalar BlockchainNetwork.iotNode[6] AverageBadServicesAt_330 2.2857142857143
scalar BlockchainNetwork.iotNode[7] AverageBadServicesAt_330 2.2857142857143
scalar BlockchainNetwork.iotNode[8] AverageBadServicesAt_330 2.2857142857143
scalar BlockchainNetwork.iotNode[9] AverageBadServicesAt_330 2.2857142857143
scalar BlockchainNetwork.iotNode[0] AverageBadServicesAt_340 2.2857142857143
scalar BlockchainNetwork.iotNode[1] AverageBadServicesAt_340 2.2857142857143
scalar BlockchainNetwork.iotNode[2] AverageBadServicesAt_340 2.2857142857143
scalar BlockchainNetwork.iotNode[3] AverageBadServicesAt_340 2.2857142857143
scalar BlockchainNetwork.iotNode[4] AverageBadServicesAt_340 2.2857142857143
scalar BlockchainNetwork.iotNode[5] AverageBadServicesAt_340 2.2857142857143
scalar BlockchainNetwork.iotNode[6] AverageBadServicesAt_340 2.2857142857143
scalar BlockchainNetwork.iotNode[7] AverageBadServicesAt_340 2.2857142857143
scalar BlockchainNetwork.iotNode[8] AverageBadServicesAt_340 2.2857142857143
scalar BlockchainNetwork.iotNode[9] AverageBadServicesAt_340 2.2857142857143
scalar BlockchainNetwork.iotNode[0] AverageBadServicesAt_350 2.2857142857143
scalar BlockchainNetwork.iotNode[1] AverageBadServicesAt_350 2.2857142857143
scalar BlockchainNetwork.iotNode[2] AverageBadServicesAt_350 2.2857142857143
scalar BlockchainNetwork.iotNode[3] AverageBadServicesAt_350 2.2857142857143
scalar BlockchainNetwork.iotNode[4] AverageBadServicesAt_350 2.2857142857143
scalar BlockchainNetwork.iotNode[5] AverageBadServicesAt_350 2.2857142857143
scalar BlockchainNetwork.iotNode[6] AverageBadServicesAt_350 2.2857142857143
scalar BlockchainNetwork.iotNode[7] AverageBadServicesAt_350 2.2857142857143
scalar BlockchainNetwork.iotNode[8] AverageBadServicesAt_350 2.2857142857143
scalar BlockchainNetwork.iotNode[9] AverageBadServicesAt_350 2.2857142857143
scalar BlockchainNetwork.iotNode[0] AverageBadServicesAt_360 2.2857142857143
scalar BlockchainNetwork.iotNode[1] AverageBadServicesAt_360 2.2857142857143
scalar BlockchainNetwork.iotNode[2] AverageBadServicesAt_360 2.2857142857143
scalar BlockchainNetwork.iotNode[3] AverageBadServicesAt_360 2.2857142857143
scalar BlockchainNetwork.iotNode[4] AverageBadServicesAt_360 2.2857142857143
scalar BlockchainNetwork.iotNode[5] AverageBadServicesAt_360 2.2857142857143
scalar BlockchainNetwork.iotNode[6] AverageBadServicesAt_360 2.2857142857143
scalar BlockchainNetwork.iotNode[7] AverageBadServicesAt_360 2.2857142857143
scalar BlockchainNetwork.iotNode[8] AverageBadServicesAt_360 2.2857142857143
scalar BlockchainNetwork.iotNode[9] AverageBadServicesAt_360 2.2857142857143
scalar BlockchainNetwork.iotNode[0] AverageBadServicesAt_370 2.2857142857143
scalar BlockchainNetwork.iotNode[1] AverageBadServicesAt_370 2.2857142857143
scalar BlockchainNetwork.iotNode[2] AverageBadServicesAt_370 2.2857142857143
scalar BlockchainNetwork.iotNode[3] AverageBadServicesAt_370 2.2857142857143
scalar BlockchainNetwork.iotNode[4] AverageBadServicesAt_370 2.2857142857143
scalar BlockchainNetwork.iotNode[5] AverageBadServicesAt_370 2.2857142857143
scalar BlockchainNetwork.iotNode[6] AverageBadServicesAt_370 2.2857142857143
scalar BlockchainNetwork.iotNode[7] AverageBadServicesAt_370 2.2857142857143
scalar BlockchainNetwork.iotNode[8] AverageBadServicesAt_370 2.2857142857143
scalar BlockchainNetwork.iotNode[9] AverageBadServicesAt_370 2.2857142857143
scalar BlockchainNetwork.iotNode[0] AverageBadServicesAt_380 2.2857142857143
scalar BlockchainNetwork.iotNode[1] AverageBadServicesAt_380 2.2857142857143
scalar BlockchainNetwork.iotNode[2] AverageBadServicesAt_380 2.2857142857143
scalar BlockchainNetwork.iotNode[3] AverageBadServicesAt_380 2.2857142857143
scalar BlockchainNetwork.iotNode[4] AverageBadServicesAt_380 2.2857142857143
scalar BlockchainNetwork.iotNode[5] AverageBadServicesAt_380 2.2857142857143
scalar BlockchainNetwork.iotNode[6] AverageBadServicesAt_380 2.2857142857143
scalar BlockchainNetwork.iotNode[7] AverageBadServicesAt_380 2.2857142857143
scalar BlockchainNetwork.iotNode[8] AverageBadServicesAt_380 2.2857142857143
scalar BlockchainNetwork.iotNode[9] AverageBadServicesAt_380 2.2857142857143
scalar BlockchainNetwork.iotNode[0] AverageBadServicesAt_390 2.2857142857143
scalar BlockchainNetwork.iotNode[1] AverageBadServicesAt_390 2.2857142857143
scalar BlockchainNetwork.iotNode[2] AverageBadServicesAt_390 2.2857142857143
scalar BlockchainNetwork.iotNode[3] AverageBadServicesAt_390 2.2857142857143
scalar BlockchainNetwork.iotNode[4] AverageBadServicesAt_390 2.2857142857143
scalar BlockchainNetwork.iotNode[5] AverageBadServicesAt_390 2.2857142857143
scalar BlockchainNetwork.iotNode[6] AverageBadServicesAt_390 2.2857142857143
scalar BlockchainNetwork.iotNode[7] AverageBadServicesAt_390 2.2857142857143
scalar BlockchainNetwork.iotNode[8] AverageBadServicesAt_390 2.2857142857143
scalar BlockchainNetwork.iotNode[9] AverageBadServicesAt_390 2.2857142857143
scalar BlockchainNetwork.iotNode[0] AverageBadServicesAt_400 2.2857142857143
scalar BlockchainNetwork.iotNode[1] AverageBadServicesAt_400 2.2857142857143
scalar BlockchainNetwork.iotNode[2] AverageBadServicesAt_400 2.2857142857143
scalar BlockchainNetwork.iotNode[3] AverageBadServicesAt_400 2.2857142857143
scalar BlockchainNetwork.iotNode[4] AverageBadServicesAt_400 2.2857142857143
scalar BlockchainNetwork.iotNode[5] AverageBadServicesAt_400 2.2857142857143
scalar BlockchainNetwork.iotNode[6] AverageBadServicesAt_400 2.2857142857143
scalar BlockchainNetwork.iotNode[7] AverageBadServicesAt_400 2.2857142857143
scalar BlockchainNetwork.iotNode[8] AverageBadServicesAt_400 2.2857142857143
scalar BlockchainNetwork.iotNode[9] AverageBadServicesAt_400 2.2857142857143
scalar BlockchainNetwork.iotNode[0] AverageBadServicesAt_410 2.2857142857143
scalar BlockchainNetwork.iotNode[1] AverageBadServicesAt_410 2.2857142857143
scalar BlockchainNetwork.iotNode[2] AverageBadServicesAt_410 2.2857142857143
scalar BlockchainNetwork.iotNode[3] AverageBadServicesAt_410 2.2857142857143
scalar BlockchainNetwork.iotNode[4] AverageBadServicesAt_410 2.2857142857143
scalar BlockchainNetwork.iotNode[5] AverageBadServicesAt_410 2.2857142857143
scalar BlockchainNetwork.iotNode[6] AverageBadServicesAt_410 2.2857142857143
scalar BlockchainNetwork.iotNode[7] AverageBadServicesAt_410 2.2857142857143
scalar BlockchainNetwork.iotNode[8] AverageBadServicesAt_410 2.2857142857143
scalar BlockchainNetwork.iotNode[9] AverageBadServicesAt_410 2.2857142857143
scalar BlockchainNetwork.iotNode[0] AverageBadServicesAt_420 2.2857142857143
scalar BlockchainNetwork.iotNode[1] AverageBadServicesAt_420 2.2857142857143
scalar BlockchainNetwork.iotNode[2] AverageBadServicesAt_420 2.2857142857143
scalar BlockchainNetwork.iotNode[3] AverageBadServicesAt_420 2.2857142857143
scalar BlockchainNetwork.iotNode[4] AverageBadServicesAt_420 2.2857142857143
scalar BlockchainNetwork.iotNode[5] AverageBadServicesAt_420 2.2857142857143
scalar BlockchainNetwork.iotNode[6] AverageBadServicesAt_420 2.2857142857143
scalar BlockchainNetwork.iotNode[7] AverageBadServicesAt_420 2.2857142857143
scalar BlockchainNetwork.iotNode[8] AverageBadServicesAt_420 2.2857142857143
scalar BlockchainNetwork.iotNode[9] AverageBadServicesAt_420 2.2857142857143
scalar BlockchainNetwork.iotNode[0] AverageBadServicesAt_430 2.2857142857143
scalar BlockchainNetwork.iotNode[1] AverageBadServicesAt_430 2.2857142857143
scalar BlockchainNetwork.iotNode[2] AverageBadServicesAt_430 2.2857142857143
scalar BlockchainNetwork.iotNode[3] AverageBadServicesAt_430 2.2857142857143
scalar BlockchainNetwork.iotNode[4] AverageBadServicesAt_430 2.2857142857143
scalar BlockchainNetwork.iotNode[5] AverageBadServicesAt_430 2.2857142857143
scalar BlockchainNetwork.iotNode[6] AverageBadServicesAt_430 2.2857142857143
scalar BlockchainNetwork.iotNode[7] AverageBadServicesAt_430 2.2857142857143
scalar BlockchainNetwork.iotNode[8] AverageBadServicesAt_430 2.2857142857143
scalar BlockchainNetwork.iotNode[9] AverageBadServicesAt_430 2.2857142857143
scalar BlockchainNetwork.iotNode[0] AverageBadServicesAt_440 2.5714285714286
scalar BlockchainNetwork.iotNode[1] AverageBadServicesAt_440 2.5714285714286
scalar BlockchainNetwork.iotNode[2] AverageBadServicesAt_440 2.5714285714286
scalar BlockchainNetwork.iotNode[3] AverageBadServicesAt_440 2.5714285714286
scalar BlockchainNetwork.iotNode[4] AverageBadServicesAt_440 2.5714285714286
scalar BlockchainNetwork.iotNode[5] AverageBadServicesAt_440 2.5714285714286
scalar BlockchainNetwork.iotNode[6] AverageBadServicesAt_440 2.5714285714286
scalar BlockchainNetwork.iotNode[7] AverageBadServicesAt_440 2.5714285714286
scalar BlockchainNetwork.iotNode[8] AverageBadServicesAt_440 2.5714285714286
scalar BlockchainNetwork.iotNode[9] AverageBadServicesAt_440 2.5714285714286
scalar BlockchainNetwork.iotNode[0] AverageBadServicesAt_450 2.5714285714286
scalar BlockchainNetwork.iotNode[1] AverageBadServicesAt_450 2.5714285714286
scalar BlockchainNetwork.iotNode[2] AverageBadServicesAt_450 2.5714285714286
scalar BlockchainNetwork.iotNode[3] AverageBadServicesAt_450 2.5714285714286
scalar BlockchainNetwork.iotNode[4] AverageBadServicesAt_450 2.5714285714286
scalar BlockchainNetwork.iotNode[5] AverageBadServicesAt_450 2.5714285714286
scalar BlockchainNetwork.iotNode[6] AverageBadServicesAt_450 2.5714285714286
scalar BlockchainNetwork.iotNode[7] AverageBadServicesAt_450 2.5714285714286
scalar BlockchainNetwork.iotNode[8] AverageBadServicesAt_450 2.5714285714286
scalar BlockchainNetwork.iotNode[9] AverageBadServicesAt_450 2.5714285714286
scalar BlockchainNetwork.iotNode[0] AverageBadServicesAt_460 2.5714285714286
scalar BlockchainNetwork.iotNode[1] AverageBadServicesAt_460 2.5714285714286
scalar BlockchainNetwork.iotNode[2] AverageBadServicesAt_460 2.5714285714286
scalar BlockchainNetwork.iotNode[3] AverageBadServicesAt_460 2.5714285714286
scalar BlockchainNetwork.iotNode[4] AverageBadServicesAt_460 2.5714285714286
scalar BlockchainNetwork.iotNode[5] AverageBadServicesAt_460 2.5714285714286
scalar BlockchainNetwork.iotNode[6] AverageBadServicesAt_460 2.5714285714286
scalar BlockchainNetwork.iotNode[7] AverageBadServicesAt_460 2.5714285714286
scalar BlockchainNetwork.iotNode[8] AverageBadServicesAt_460 2.5714285714286
scalar BlockchainNetwork.iotNode[9] AverageBadServicesAt_460 2.5714285714286
scalar BlockchainNetwork.iotNode[0] AverageBadServicesAt_470 2.5714285714286
scalar BlockchainNetwork.iotNode[1] AverageBadServicesAt_470 2.5714285714286
scalar BlockchainNetwork.iotNode[2] AverageBadServicesAt_470 2.5714285714286
scalar BlockchainNetwork.iotNode[3] AverageBadServicesAt_470 2.5714285714286
scalar BlockchainNetwork.iotNode[4] AverageBadServicesAt_470 2.5714285714286
scalar BlockchainNetwork.iotNode[5] AverageBadServicesAt_470 2.5714285714286
scalar BlockchainNetwork.iotNode[6] AverageBadServicesAt_470 2.5714285714286
scalar BlockchainNetwork.iotNode[7] AverageBadServicesAt_470 2.5714285714286
scalar BlockchainNetwork.iotNode[8] AverageBadServicesAt_470 2.5714285714286
scalar BlockchainNetwork.iotNode[9] AverageBadServicesAt_470 2.5714285714286
scalar BlockchainNetwork.iotNode[0] AverageBadServicesAt_480 2.5714285714286
scalar BlockchainNetwork.iotNode[1] AverageBadServicesAt_480 2.5714285714286
scalar BlockchainNetwork.iotNode[2] AverageBadServicesAt_480 2.5714285714286
scalar BlockchainNetwork.iotNode[3] AverageBadServicesAt_480 2.5714285714286
scalar BlockchainNetwork.iotNode[4] AverageBadServicesAt_480 2.5714285714286
scalar BlockchainNetwork.iotNode[5] AverageBadServicesAt_480 2.5714285714286
scalar BlockchainNetwork.iotNode[6] AverageBadServicesAt_480 2.5714285714286
scalar BlockchainNetwork.iotNode[7] AverageBadServicesAt_480 2.5714285714286
scalar BlockchainNetwork.iotNode[8] AverageBadServicesAt_480 2.5714285714286
scalar BlockchainNetwork.iotNode[9] AverageBadServicesAt_480 2.5714285714286
scalar BlockchainNetwork.iotNode[0] AverageBadServicesAt_490 2.5714285714286
scalar BlockchainNetwork.iotNode[1] AverageBadServicesAt_490 2.5714285714286
scalar BlockchainNetwork.iotNode[2] AverageBadServicesAt_490 2.5714285714286
scalar BlockchainNetwork.iotNode[3] AverageBadServicesAt_490 2.5714285714286
scalar BlockchainNetwork.iotNode[4] AverageBadServicesAt_490 2.5714285714286
scalar BlockchainNetwork.iotNode[5] AverageBadServicesAt_490 2.5714285714286
scalar BlockchainNetwork.iotNode[6] AverageBadServicesAt_490 2.5714285714286
scalar BlockchainNetwork.iotNode[7] AverageBadServicesAt_490 2.5714285714286
scalar BlockchainNetwork.iotNode[8] AverageBadServicesAt_490 2.5714285714286
scalar BlockchainNetwork.iotNode[9] AverageBadServicesAt_490 2.5714285714286
scalar BlockchainNetwork.iotNode[0] AverageBadServicesAt_500 2.5714285714286
scalar BlockchainNetwork.iotNode[1] AverageBadServicesAt_500 2.5714285714286
scalar BlockchainNetwork.iotNode[2] AverageBadServicesAt_500 2.5714285714286
scalar BlockchainNetwork.iotNode[3] AverageBadServicesAt_500 2.5714285714286
scalar BlockchainNetwork.iotNode[4] AverageBadServicesAt_500 2.5714285714286
scalar BlockchainNetwork.iotNode[5] AverageBadServicesAt_500 2.5714285714286
scalar BlockchainNetwork.iotNode[6] AverageBadServicesAt_500 2.5714285714286
scalar BlockchainNetwork.iotNode[7] AverageBadServicesAt_500 2.5714285714286
scalar BlockchainNetwork.iotNode[8] AverageBadServicesAt_500 2.5714285714286
scalar BlockchainNetwork.iotNode[9] AverageBadServicesAt_500 2.5714285714286
scalar BlockchainNetwork.iotNode[0] AverageBadServicesAt_510 2.5714285714286
scalar BlockchainNetwork.iotNode[1] AverageBadServicesAt_510 2.5714285714286
scalar BlockchainNetwork.iotNode[2] AverageBadServicesAt_510 2.5714285714286
scalar BlockchainNetwork.iotNode[3] AverageBadServicesAt_510 2.5714285714286
scalar BlockchainNetwork.iotNode[4] AverageBadServicesAt_510 2.5714285714286
scalar BlockchainNetwork.iotNode[5] AverageBadServicesAt_510 2.5714285714286
scalar BlockchainNetwork.iotNode[6] AverageBadServicesAt_510 2.5714285714286
scalar BlockchainNetwork.iotNode[7] AverageBadServicesAt_510 2.5714285714286
scalar BlockchainNetwork.iotNode[8] AverageBadServicesAt_510 2.5714285714286
scalar BlockchainNetwork.iotNode[9] AverageBadServicesAt_510 2.5714285714286
scalar BlockchainNetwork.iotNode[0] AverageBadServicesAt_520 2.5714285714286
scalar BlockchainNetwork.iotNode[1] AverageBadServicesAt_520 2.5714285714286
scalar BlockchainNetwork.iotNode[2] AverageBadServicesAt_520 2.5714285714286
scalar BlockchainNetwork.iotNode[3] AverageBadServicesAt_520 2.5714285714286
scalar BlockchainNetwork.iotNode[4] AverageBadServicesAt_520 2.5714285714286
scalar BlockchainNetwork.iotNode[5] AverageBadServicesAt_520 2.5714285714286
scalar BlockchainNetwork.iotNode[6] AverageBadServicesAt_520 2.5714285714286
scalar BlockchainNetwork.iotNode[7] AverageBadServicesAt_520 2.5714285714286
scalar BlockchainNetwork.iotNode[8] AverageBadServicesAt_520 2.5714285714286
scalar BlockchainNetwork.iotNode[9] AverageBadServicesAt_520 2.5714285714286
scalar BlockchainNetwork.iotNode[0] AverageBadServicesAt_530 2.5714285714286
scalar BlockchainNetwork.iotNode[1] AverageBadServicesAt_530 2.5714285714286
scalar BlockchainNetwork.iotNode[2] AverageBadServicesAt_530 2.5714285714286
scalar BlockchainNetwork.iotNode[3] AverageBadServicesAt_530 2.5714285714286
scalar BlockchainNetwork.iotNode[4] AverageBadServicesAt_530 2.5714285714286
scalar BlockchainNetwork.iotNode[5] AverageBadServicesAt_530 2.5714285714286
scalar BlockchainNetwork.iotNode[6] AverageBadServicesAt_530 2.5714285714286
scalar BlockchainNetwork.iotNode[7] AverageBadServicesAt_530 2.5714285714286
scalar BlockchainNetwork.iotNode[8] AverageBadServicesAt_530 2.5714285714286
scalar BlockchainNetwork.iotNode[9] AverageBadServicesAt_530 2.5714285714286
scalar BlockchainNetwork.iotNode[0] AverageBadServicesAt_540 2.5714285714286
scalar BlockchainNetwork.iotNode[1] AverageBadServicesAt_540 2.5714285714286
scalar BlockchainNetwork.iotNode[2] AverageBadServicesAt_540 2.5714285714286
scalar BlockchainNetwork.iotNode[3] AverageBadServicesAt_540 2.5714285714286
scalar BlockchainNetwork.iotNode[4] AverageBadServicesAt_540 2.5714285714286
scalar BlockchainNetwork.iotNode[5] AverageBadServicesAt_540 2.5714285714286
scalar BlockchainNetwork.iotNode[6] AverageBadServicesAt_540 2.5714285714286
scalar BlockchainNetwork.iotNode[7] AverageBadServicesAt_540 2.5714285714286
scalar BlockchainNetwork.iotNode[8] AverageBadServicesAt_540 2.5714285714286
scalar BlockchainNetwork.iotNode[9] AverageBadServicesAt_540 2.5714285714286
scalar BlockchainNetwork.iotNode[0] AverageBadServicesAt_550 2.5714285714286
scalar BlockchainNetwork.iotNode[1] AverageBadServicesAt_550 2.5714285714286
scalar BlockchainNetwork.iotNode[2] AverageBadServicesAt_550 2.5714285714286
scalar BlockchainNetwork.iotNode[3] AverageBadServicesAt_550 2.5714285714286
scalar BlockchainNetwork.iotNode[4] AverageBadServicesAt_550 2.5714285714286
scalar BlockchainNetwork.iotNode[5] AverageBadServicesAt_550 2.5714285714286
scalar BlockchainNetwork.iotNode[6] AverageBadServicesAt_550 2.5714285714286
scalar BlockchainNetwork.iotNode[7] AverageBadServicesAt_550 2.5714285714286
scalar BlockchainNetwork.iotNode[8] AverageBadServicesAt_550 2.5714285714286
scalar BlockchainNetwork.iotNode[9] AverageBadServicesAt_550 2.5714285714286
scalar BlockchainNetwork.iotNode[0] AverageBadServicesAt_560 2.5714285714286
scalar BlockchainNetwork.iotNode[1] AverageBadServicesAt_560 2.5714285714286
scalar BlockchainNetwork.iotNode[2] AverageBadServicesAt_560 2.5714285714286
scalar BlockchainNetwork.iotNode[3] AverageBadServicesAt_560 2.5714285714286
scalar BlockchainNetwork.iotNode[4] AverageBadServicesAt_560 2.5714285714286
scalar BlockchainNetwork.iotNode[5] AverageBadServicesAt_560 2.5714285714286
scalar BlockchainNetwork.iotNode[6] AverageBadServicesAt_560 2.5714285714286
scalar BlockchainNetwork.iotNode[7] AverageBadServicesAt_560 2.5714285714286
scalar BlockchainNetwork.iotNode[8] AverageBadServicesAt_560 2.5714285714286
scalar BlockchainNetwork.iotNode[9] AverageBadServicesAt_560 2.5714285714286
scalar BlockchainNetwork.iotNode[0] AverageBadServicesAt_570 2.5714285714286
scalar BlockchainNetwork.iotNode[1] AverageBadServicesAt_570 2.5714285714286
scalar BlockchainNetwork.iotNode[2] AverageBadServicesAt_570 2.5714285714286
scalar BlockchainNetwork.iotNode[3] AverageBadServicesAt_570 2.5714285714286
scalar BlockchainNetwork.iotNode[4] AverageBadServicesAt_570 2.5714285714286
scalar BlockchainNetwork.iotNode[5] AverageBadServicesAt_570 2.5714285714286
scalar BlockchainNetwork.iotNode[6] AverageBadServicesAt_570 2.5714285714286
scalar BlockchainNetwork.iotNode[7] AverageBadServicesAt_570 2.5714285714286
scalar BlockchainNetwork.iotNode[8] AverageBadServicesAt_570 2.5714285714286
scalar BlockchainNetwork.iotNode[9] AverageBadServicesAt_570 2.5714285714286
scalar BlockchainNetwork.iotNode[0] AverageBadServicesAt_580 2.5714285714286
scalar BlockchainNetwork.iotNode[1] AverageBadServicesAt_580 2.5714285714286
scalar BlockchainNetwork.iotNode[2] AverageBadServicesAt_580 2.5714285714286
scalar BlockchainNetwork.iotNode[3] AverageBadServicesAt_580 2.5714285714286
scalar BlockchainNetwork.iotNode[4] AverageBadServicesAt_580 2.5714285714286
scalar BlockchainNetwork.iotNode[5] AverageBadServicesAt_580 2.5714285714286
scalar BlockchainNetwork.iotNode[6] AverageBadServicesAt_580 2.5714285714286
scalar BlockchainNetwork.iotNode[7] AverageBadServicesAt_580 2.5714285714286
scalar BlockchainNetwork.iotNode[8] AverageBadServicesAt_580 2.5714285714286
scalar BlockchainNetwork.iotNode[9] AverageBadServicesAt_580 2.5714285714286
scalar BlockchainNetwork.iotNode[0] AverageBadServicesAt_590 2.5714285714286
scalar BlockchainNetwork.iotNode[1] AverageBadServicesAt_590 2.5714285714286
scalar BlockchainNetwork.iotNode[2] AverageBadServicesAt_590 2.5714285714286
scalar BlockchainNetwork.iotNode[3] AverageBadServicesAt_590 2.5714285714286
scalar BlockchainNetwork.iotNode[4] AverageBadServicesAt_590 2.5714285714286
scalar BlockchainNetwork.iotNode[5] AverageBadServicesAt_590 2.5714285714286
scalar BlockchainNetwork.iotNode[6] AverageBadServicesAt_590 2.5714285714286
scalar BlockchainNetwork.iotNode[7] AverageBadServicesAt_590 2.5714285714286
scalar BlockchainNetwork.iotNode[8] AverageBadServicesAt_590 2.5714285714286
scalar BlockchainNetwork.iotNode[9] AverageBadServicesAt_590 2.5714285714286
scalar BlockchainNetwork.iotNode[0] AverageBadServicesAt_600 2.5714285714286
scalar BlockchainNetwork.iotNode[1] AverageBadServicesAt_600 2.5714285714286
scalar BlockchainNetwork.iotNode[2] AverageBadServicesAt_600 2.5714285714286
scalar BlockchainNetwork.iotNode[3] AverageBadServicesAt_600 2.5714285714286
scalar BlockchainNetwork.iotNode[4] AverageBadServicesAt_600 2.5714285714286
scalar BlockchainNetwork.iotNode[5] AverageBadServicesAt_600 2.5714285714286
scalar BlockchainNetwork.iotNode[6] AverageBadServicesAt_600 2.5714285714286
scalar BlockchainNetwork.iotNode[7] AverageBadServicesAt_600 2.5714285714286
scalar BlockchainNetwork.iotNode[8] AverageBadServicesAt_600 2.5714285714286
scalar BlockchainNetwork.iotNode[9] AverageBadServicesAt_600 2.5714285714286
scalar BlockchainNetwork.iotNode[0] AverageBadServicesAt_610 2.5714285714286
scalar BlockchainNetwork.iotNode[1] AverageBadServicesAt_610 2.5714285714286
scalar BlockchainNetwork.iotNode[2] AverageBadServicesAt_610 2.5714285714286
scalar BlockchainNetwork.iotNode[3] AverageBadServicesAt_610 2.5714285714286
scalar BlockchainNetwork.iotNode[4] AverageBadServicesAt_610 2.5714285714286
scalar BlockchainNetwork.iotNode[5] AverageBadServicesAt_610 2.5714285714286
scalar BlockchainNetwork.iotNode[6] AverageBadServicesAt_610 2.5714285714286
scalar BlockchainNetwork.iotNode[7] AverageBadServicesAt_610 2.5714285714286
scalar BlockchainNetwork.iotNode[8] AverageBadServicesAt_610 2.5714285714286
scalar BlockchainNetwork.iotNode[9] AverageBadServicesAt_610 2.5714285714286
scalar BlockchainNetwork.iotNode[0] AverageBadServicesAt_620 2.5714285714286
scalar BlockchainNetwork.iotNode[1] AverageBadServicesAt_620 2.5714285714286
scalar BlockchainNetwork.iotNode[2] AverageBadServicesAt_620 2.5714285714286
scalar BlockchainNetwork.iotNode[3] AverageBadServicesAt_620 2.5714285714286
scalar BlockchainNetwork.iotNode[4] AverageBadServicesAt_620 2.5714285714286
scalar BlockchainNetwork.iotNode[5] AverageBadServicesAt_620 2.5714285714286
scalar BlockchainNetwork.iotNode[6] AverageBadServicesAt_620 2.5714285714286
scalar BlockchainNetwork.iotNode[7] AverageBadServicesAt_620 2.5714285714286
scalar BlockchainNetwork.iotNode[8] AverageBadServicesAt_620 2.5714285714286
scalar BlockchainNetwork.iotNode[9] AverageBadServicesAt_620 2.5714285714286
scalar BlockchainNetwork.iotNode[0] AverageBadServicesAt_630 2.5714285714286
scalar BlockchainNetwork.iotNode[1] AverageBadServicesAt_630 2.5714285714286
scalar BlockchainNetwork.iotNode[2] AverageBadServicesAt_630 2.5714285714286
scalar BlockchainNetwork.iotNode[3] AverageBadServicesAt_630 2.5714285714286
scalar BlockchainNetwork.iotNode[4] AverageBadServicesAt_630 2.5714285714286
scalar BlockchainNetwork.iotNode[5] AverageBadServicesAt_630 2.5714285714286
scalar BlockchainNetwork.iotNode[6] AverageBadServicesAt_630 2.5714285714286
scalar BlockchainNetwork.iotNode[7] AverageBadServicesAt_630 2.5714285714286
scalar BlockchainNetwork.iotNode[8] AverageBadServicesAt_630 2.5714285714286
scalar BlockchainNetwork.iotNode[9] AverageBadServicesAt_630 2.5714285714286
scalar BlockchainNetwork.iotNode[0] AverageBadServicesAt_640 2.5714285714286
scalar BlockchainNetwork.iotNode[1] AverageBadServicesAt_640 2.5714285714286
scalar BlockchainNetwork.iotNode[2] AverageBadServicesAt_640 2.5714285714286
scalar BlockchainNetwork.iotNode[3] AverageBadServicesAt_640 2.5714285714286
scalar BlockchainNetwork.iotNode[4] AverageBadServicesAt_640 2.5714285714286
scalar BlockchainNetwork.iotNode[5] AverageBadServicesAt_640 2.5714285714286
scalar BlockchainNetwork.iotNode[6] AverageBadServicesAt_640 2.5714285714286
scalar BlockchainNetwork.iotNode[7] AverageBadServicesAt_640 2.5714285714286
scalar BlockchainNetwork.iotNode[8] AverageBadServicesAt_640 2.5714285714286
scalar BlockchainNetwork.iotNode[9] AverageBadServicesAt_640 2.5714285714286
scalar BlockchainNetwork.iotNode[0] AverageBadServicesAt_650 2.5714285714286
scalar BlockchainNetwork.iotNode[1] AverageBadServicesAt_650 2.5714285714286
scalar BlockchainNetwork.iotNode[2] AverageBadServicesAt_650 2.5714285714286
scalar BlockchainNetwork.iotNode[3] AverageBadServicesAt_650 2.5714285714286
scalar BlockchainNetwork.iotNode[4] AverageBadServicesAt_650 2.5714285714286
scalar BlockchainNetwork.iotNode[5] AverageBadServicesAt_650 2.5714285714286
scalar BlockchainNetwork.iotNode[6] AverageBadServicesAt_650 2.5714285714286
scalar BlockchainNetwork.iotNode[7] AverageBadServicesAt_650 2.5714285714286
scalar BlockchainNetwork.iotNode[8] AverageBadServicesAt_650 2.5714285714286
scalar BlockchainNetwork.iotNode[9] AverageBadServicesAt_650 2.5714285714286
scalar BlockchainNetwork.iotNode[0] AverageBadServicesAt_660 2.5714285714286
scalar BlockchainNetwork.iotNode[1] AverageBadServicesAt_660 2.5714285714286
scalar BlockchainNetwork.iotNode[2] AverageBadServicesAt_660 2.5714285714286
scalar BlockchainNetwork.iotNode[3] AverageBadServicesAt_660 2.5714285714286
scalar BlockchainNetwork.iotNode[4] AverageBadServicesAt_660 2.5714285714286
scalar BlockchainNetwork.iotNode[5] AverageBadServicesAt_660 2.5714285714286
scalar BlockchainNetwork.iotNode[6] AverageBadServicesAt_660 2.5714285714286
scalar BlockchainNetwork.iotNode[7] AverageBadServicesAt_660 2.5714285714286
scalar BlockchainNetwork.iotNode[8] AverageBadServicesAt_660 2.5714285714286
scalar BlockchainNetwork.iotNode[9] AverageBadServicesAt_660 2.5714285714286
scalar BlockchainNetwork.iotNode[0] AverageBadServicesAt_670 2.5714285714286
scalar BlockchainNetwork.iotNode[1] AverageBadServicesAt_670 2.5714285714286
scalar BlockchainNetwork.iotNode[2] AverageBadServicesAt_670 2.5714285714286
scalar BlockchainNetwork.iotNode[3] AverageBadServicesAt_670 2.5714285714286
scalar BlockchainNetwork.iotNode[4] AverageBadServicesAt_670 2.5714285714286
scalar BlockchainNetwork.iotNode[5] AverageBadServicesAt_670 2.5714285714286
scalar BlockchainNetwork.iotNode[6] AverageBadServicesAt_670 2.5714285714286
scalar BlockchainNetwork.iotNode[7] AverageBadServicesAt_670 2.5714285714286
scalar BlockchainNetwork.iotNode[8] AverageBadServicesAt_670 2.5714285714286
scalar BlockchainNetwork.iotNode[9] AverageBadServicesAt_670 2.5714285714286
scalar BlockchainNetwork.iotNode[0] AverageBadServicesAt_680 2.5714285714286
scalar BlockchainNetwork.iotNode[1] AverageBadServicesAt_680 2.5714285714286
scalar BlockchainNetwork.iotNode[2] AverageBadServicesAt_680 2.5714285714286
scalar BlockchainNetwork.iotNode[3] AverageBadServicesAt_680 2.5714285714286
scalar BlockchainNetwork.iotNode[4] AverageBadServicesAt_680 2.5714285714286
scalar BlockchainNetwork.iotNode[5] AverageBadServicesAt_680 2.5714285714286
scalar BlockchainNetwork.iotNode[6] AverageBadServicesAt_680 2.5714285714286
scalar BlockchainNetwork.iotNode[7] AverageBadServicesAt_680 2.5714285714286
scalar BlockchainNetwork.iotNode[8] AverageBadServicesAt_680 2.5714285714286
scalar BlockchainNetwork.iotNode[9] AverageBadServicesAt_680 2.5714285714286
scalar BlockchainNetwork.iotNode[0] AverageBadServicesAt_690 2.5714285714286
scalar BlockchainNetwork.iotNode[1] AverageBadServicesAt_690 2.5714285714286
scalar BlockchainNetwork.iotNode[2] AverageBadServicesAt_690 2.5714285714286
scalar BlockchainNetwork.iotNode[3] AverageBadServicesAt_690 2.5714285714286
scalar BlockchainNetwork.iotNode[4] AverageBadServicesAt_690 2.5714285714286
scalar BlockchainNetwork.iotNode[5] AverageBadServicesAt_690 2.5714285714286
scalar BlockchainNetwork.iotNode[6] AverageBadServicesAt_690 2.5714285714286
scalar BlockchainNetwork.iotNode[7] AverageBadServicesAt_690 2.5714285714286
scalar BlockchainNetwork.iotNode[8] AverageBadServicesAt_690 2.5714285714286
scalar BlockchainNetwork.iotNode[9] AverageBadServicesAt_690 2.5714285714286
scalar BlockchainNetwork.iotNode[0] AverageBadServicesAt_700 2.7142857142857
scalar BlockchainNetwork.iotNode[1] AverageBadServicesAt_700 2.7142857142857
scalar BlockchainNetwork.iotNode[2] AverageBadServicesAt_700 2.7142857142857
scalar BlockchainNetwork.iotNode[3] AverageBadServicesAt_700 2.7142857142857
scalar BlockchainNetwork.iotNode[4] AverageBadServicesAt_700 2.7142857142857
scalar BlockchainNetwork.iotNode[5] AverageBadServicesAt_700 2.7142857142857
scalar BlockchainNetwork.iotNode[6] AverageBadServicesAt_700 2.7142857142857
scalar BlockchainNetwork.iotNode[7] AverageBadServicesAt_700 2.7142857142857
scalar BlockchainNetwork.iotNode[8] AverageBadServicesAt_700 2.7142857142857
scalar BlockchainNetwork.iotNode[9] AverageBadServicesAt_700 2.7142857142857
scalar BlockchainNetwork.iotNode[0] AverageBadServicesAt_710 2.7142857142857
scalar BlockchainNetwork.iotNode[1] AverageBadServicesAt_710 2.7142857142857
scalar BlockchainNetwork.iotNode[2] AverageBadServicesAt_710 2.7142857142857
scalar BlockchainNetwork.iotNode[3] AverageBadServicesAt_710 2.7142857142857
scalar BlockchainNetwork.iotNode[4] AverageBadServicesAt_710 2.7142857142857
scalar BlockchainNetwork.iotNode[5] AverageBadServicesAt_710 2.7142857142857
scalar BlockchainNetwork.iotNode[6] AverageBadServicesAt_710 2.7142857142857
scalar BlockchainNetwork.iotNode[7] AverageBadServicesAt_710 2.7142857142857
scalar BlockchainNetwork.iotNode[8] AverageBadServicesAt_710 2.7142857142857
scalar BlockchainNetwork.iotNode[9] AverageBadServicesAt_710 2.7142857142857
scalar BlockchainNetwork.iotNode[0] AverageBadServicesAt_720 2.7142857142857
scalar BlockchainNetwork.iotNode[1] AverageBadServicesAt_720 2.7142857142857
scalar BlockchainNetwork.iotNode[2] AverageBadServicesAt_720 2.7142857142857
scalar BlockchainNetwork.iotNode[3] AverageBadServicesAt_720 2.7142857142857
scalar BlockchainNetwork.iotNode[4] AverageBadServicesAt_720 2.7142857142857
scalar BlockchainNetwork.iotNode[5] AverageBadServicesAt_720 2.7142857142857
scalar BlockchainNetwork.iotNode[6] AverageBadServicesAt_720 2.7142857142857
scalar BlockchainNetwork.iotNode[7] AverageBadServicesAt_720 2.7142857142857
scalar BlockchainNetwork.iotNode[8] AverageBadServicesAt_720 2.7142857142857
scalar BlockchainNetwork.iotNode[9] AverageBadServicesAt_720 2.7142857142857
scalar BlockchainNetwork.iotNode[0] AverageBadServicesAt_730 2.7142857142857
scalar BlockchainNetwork.iotNode[1] AverageBadServicesAt_730 2.7142857142857
scalar BlockchainNetwork.iotNode[2] AverageBadServicesAt_730 2.7142857142857
scalar BlockchainNetwork.iotNode[3] AverageBadServicesAt_730 2.7142857142857
scalar BlockchainNetwork.iotNode[4] AverageBadServicesAt_730 2.7142857142857
scalar BlockchainNetwork.iotNode[5] AverageBadServicesAt_730 2.7142857142857
scalar BlockchainNetwork.iotNode[6] AverageBadServicesAt_730 2.7142857142857
scalar BlockchainNetwork.iotNode[7] AverageBadServicesAt_730 2.7142857142857
scalar BlockchainNetwork.iotNode[8] AverageBadServicesAt_730 2.7142857142857
scalar BlockchainNetwork.iotNode[9] AverageBadServicesAt_730 2.7142857142857
scalar BlockchainNetwork.iotNode[0] AverageBadServicesAt_740 2.7142857142857
scalar BlockchainNetwork.iotNode[1] AverageBadServicesAt_740 2.7142857142857
scalar BlockchainNetwork.iotNode[2] AverageBadServicesAt_740 2.7142857142857
scalar BlockchainNetwork.iotNode[3] AverageBadServicesAt_740 2.7142857142857
scalar BlockchainNetwork.iotNode[4] AverageBadServicesAt_740 2.7142857142857
scalar BlockchainNetwork.iotNode[5] AverageBadServicesAt_740 2.7142857142857
scalar BlockchainNetwork.iotNode[6] AverageBadServicesAt_740 2.7142857142857
scalar BlockchainNetwork.iotNode[7] AverageBadServicesAt_740 2.7142857142857
scalar BlockchainNetwork.iotNode[8] AverageBadServicesAt_740 2.7142857142857
scalar BlockchainNetwork.iotNode[9] AverageBadServicesAt_740 2.7142857142857
scalar BlockchainNetwork.iotNode[0] AverageBadServicesAt_750 2.7142857142857
scalar BlockchainNetwork.iotNode[1] AverageBadServicesAt_750 2.7142857142857
scalar BlockchainNetwork.iotNode[2] AverageBadServicesAt_750 2.7142857142857
scalar BlockchainNetwork.iotNode[3] AverageBadServicesAt_750 2.7142857142857
scalar BlockchainNetwork.iotNode[4] AverageBadServicesAt_750 2.7142857142857
scalar BlockchainNetwork.iotNode[5] AverageBadServicesAt_750 2.7142857142857
scalar BlockchainNetwork.iotNode[6] AverageBadServicesAt_750 2.7142857142857
scalar BlockchainNetwork.iotNode[7] AverageBadServicesAt_750 2.7142857142857
scalar BlockchainNetwork.iotNode[8] AverageBadServicesAt_750 2.7142857142857
scalar BlockchainNetwork.iotNode[9] AverageBadServicesAt_750 2.7142857142857
scalar BlockchainNetwork.iotNode[0] AverageBadServicesAt_760 2.7142857142857
scalar BlockchainNetwork.iotNode[1] AverageBadServicesAt_760 2.7142857142857
scalar BlockchainNetwork.iotNode[2] AverageBadServicesAt_760 2.7142857142857
scalar BlockchainNetwork.iotNode[3] AverageBadServicesAt_760 2.7142857142857
scalar BlockchainNetwork.iotNode[4] AverageBadServicesAt_760 2.7142857142857
scalar BlockchainNetwork.iotNode[5] AverageBadServicesAt_760 2.7142857142857
scalar BlockchainNetwork.iotNode[6] AverageBadServicesAt_760 2.7142857142857
scalar BlockchainNetwork.iotNode[7] AverageBadServicesAt_760 2.7142857142857
scalar BlockchainNetwork.iotNode[8] AverageBadServicesAt_760 2.7142857142857
scalar BlockchainNetwork.iotNode[9] AverageBadServicesAt_760 2.7142857142857
scalar BlockchainNetwork.iotNode[0] AverageBadServicesAt_770 2.7142857142857
scalar BlockchainNetwork.iotNode[1] AverageBadServicesAt_770 2.7142857142857
scalar BlockchainNetwork.iotNode[2] AverageBadServicesAt_770 2.7142857142857
scalar BlockchainNetwork.iotNode[3] AverageBadServicesAt_770 2.7142857142857
scalar BlockchainNetwork.iotNode[4] AverageBadServicesAt_770 2.7142857142857
scalar BlockchainNetwork.iotNode[5] AverageBadServicesAt_770 2.7142857142857
scalar BlockchainNetwork.iotNode[6] AverageBadServicesAt_770 2.7142857142857
scalar BlockchainNetwork.iotNode[7] AverageBadServicesAt_770 2.7142857142857
scalar BlockchainNetwork.iotNode[8] AverageBadServicesAt_770 2.7142857142857
scalar BlockchainNetwork.iotNode[9] AverageBadServicesAt_770 2.7142857142857
scalar BlockchainNetwork.iotNode[0] AverageBadServicesAt_780 2.8571428571429
scalar BlockchainNetwork.iotNode[1] AverageBadServicesAt_780 2.8571428571429
scalar BlockchainNetwork.iotNode[2] AverageBadServicesAt_780 2.8571428571429
scalar BlockchainNetwork.iotNode[3] AverageBadServicesAt_780 2.8571428571429
scalar BlockchainNetwork.iotNode[4] AverageBadServicesAt_780 2.8571428571429
scalar BlockchainNetwork.iotNode[5] AverageBadServicesAt_780 2.8571428571429
scalar BlockchainNetwork.iotNode[6] AverageBadServicesAt_780 2.8571428571429
scalar BlockchainNetwork.iotNode[7] AverageBadServicesAt_780 2.8571428571429
scalar BlockchainNetwork.iotNode[8] AverageBadServicesAt_780 2.8571428571429
scalar BlockchainNetwork.iotNode[9] AverageBadServicesAt_780 2.8571428571429
scalar BlockchainNetwork.iotNode[0] AverageBadServicesAt_790 2.8571428571429
scalar BlockchainNetwork.iotNode[1] AverageBadServicesAt_790 2.8571428571429
scalar BlockchainNetwork.iotNode[2] AverageBadServicesAt_790 2.8571428571429
scalar BlockchainNetwork.iotNode[3] AverageBadServicesAt_790 2.8571428571429
scalar BlockchainNetwork.iotNode[4] AverageBadServicesAt_790 2.8571428571429
scalar BlockchainNetwork.iotNode[5] AverageBadServicesAt_790 2.8571428571429
scalar BlockchainNetwork.iotNode[6] AverageBadServicesAt_790 2.8571428571429
scalar BlockchainNetwork.iotNode[7] AverageBadServicesAt_790 2.8571428571429
scalar BlockchainNetwork.iotNode[8] AverageBadServicesAt_790 2.8571428571429
scalar BlockchainNetwork.iotNode[9] AverageBadServicesAt_790 2.8571428571429
scalar BlockchainNetwork.iotNode[0] AverageBadServicesAt_800 2.8571428571429
scalar BlockchainNetwork.iotNode[1] AverageBadServicesAt_800 2.8571428571429
scalar BlockchainNetwork.iotNode[2] AverageBadServicesAt_800 2.8571428571429
scalar BlockchainNetwork.iotNode[3] AverageBadServicesAt_800 2.8571428571429
scalar BlockchainNetwork.iotNode[4] AverageBadServicesAt_800 2.8571428571429
scalar BlockchainNetwork.iotNode[5] AverageBadServicesAt_800 2.8571428571429
scalar BlockchainNetwork.iotNode[6] AverageBadServicesAt_800 2.8571428571429
scalar BlockchainNetwork.iotNode[7] AverageBadServicesAt_800 2.8571428571429
scalar BlockchainNetwork.iotNode[8] AverageBadServicesAt_800 2.8571428571429
scalar BlockchainNetwork.iotNode[9] AverageBadServicesAt_800 2.8571428571429
scalar BlockchainNetwork.iotNode[0] AverageBadServicesAt_810 2.8571428571429
scalar BlockchainNetwork.iotNode[1] AverageBadServicesAt_810 2.8571428571429
scalar BlockchainNetwork.iotNode[2] AverageBadServicesAt_810 2.8571428571429
scalar BlockchainNetwork.iotNode[3] AverageBadServicesAt_810 2.8571428571429
scalar BlockchainNetwork.iotNode[4] AverageBadServicesAt_810 2.8571428571429
scalar BlockchainNetwork.iotNode[5] AverageBadServicesAt_810 2.8571428571429
scalar BlockchainNetwork.iotNode[6] AverageBadServicesAt_810 2.8571428571429
scalar BlockchainNetwork.iotNode[7] AverageBadServicesAt_810 2.8571428571429
scalar BlockchainNetwork.iotNode[8] AverageBadServicesAt_810 2.8571428571429
scalar BlockchainNetwork.iotNode[9] AverageBadServicesAt_810 2.8571428571429
scalar BlockchainNetwork.iotNode[0] AverageBadServicesAt_820 2.8571428571429
scalar BlockchainNetwork.iotNode[1] AverageBadServicesAt_820 2.8571428571429
scalar BlockchainNetwork.iotNode[2] AverageBadServicesAt_820 2.8571428571429
scalar BlockchainNetwork.iotNode[3] AverageBadServicesAt_820 2.8571428571429
scalar BlockchainNetwork.iotNode[4] AverageBadServicesAt_820 2.8571428571429
scalar BlockchainNetwork.iotNode[5] AverageBadServicesAt_820 2.8571428571429
scalar BlockchainNetwork.iotNode[6] AverageBadServicesAt_820 2.8571428571429
scalar BlockchainNetwork.iotNode[7] AverageBadServicesAt_820 2.8571428571429
scalar BlockchainNetwork.iotNode[8] AverageBadServicesAt_820 2.8571428571429
scalar BlockchainNetwork.iotNode[9] AverageBadServicesAt_820 2.8571428571429
scalar BlockchainNetwork.iotNode[0] AverageBadServicesAt_830 2.8571428571429
scalar BlockchainNetwork.iotNode[1] AverageBadServicesAt_830 2.8571428571429
scalar BlockchainNetwork.iotNode[2] AverageBadServicesAt_830 2.8571428571429
scalar BlockchainNetwork.iotNode[3] AverageBadServicesAt_830 2.8571428571429
scalar BlockchainNetwork.iotNode[4] AverageBadServicesAt_830 2.8571428571429
scalar BlockchainNetwork.iotNode[5] AverageBadServicesAt_830 2.8571428571429
scalar BlockchainNetwork.iotNode[6] AverageBadServicesAt_830 2.8571428571429
scalar BlockchainNetwork.iotNode[7] AverageBadServicesAt_830 2.8571428571429
scalar BlockchainNetwork.iotNode[8] AverageBadServicesAt_830 2.8571428571429
scalar BlockchainNetwork.iotNode[9] AverageBadServicesAt_830 2.8571428571429
scalar BlockchainNetwork.iotNode[0] AverageBadServicesAt_840 2.8571428571429
scalar BlockchainNetwork.iotNode[1] AverageBadServicesAt_840 2.8571428571429
scalar BlockchainNetwork.iotNode[2] AverageBadServicesAt_840 2.8571428571429
scalar BlockchainNetwork.iotNode[3] AverageBadServicesAt_840 2.8571428571429
scalar BlockchainNetwork.iotNode[4] AverageBadServicesAt_840 2.8571428571429
scalar BlockchainNetwork.iotNode[5] AverageBadServicesAt_840 2.8571428571429
scalar BlockchainNetwork.iotNode[6] AverageBadServicesAt_840 2.8571428571429
scalar BlockchainNetwork.iotNode[7] AverageBadServicesAt_840 2.8571428571429
scalar BlockchainNetwork.iotNode[8] AverageBadServicesAt_840 2.8571428571429
scalar BlockchainNetwork.iotNode[9] AverageBadServicesAt_840 2.8571428571429
scalar BlockchainNetwork.iotNode[0] AverageBadServicesAt_850 2.8571428571429
scalar BlockchainNetwork.iotNode[1] AverageBadServicesAt_850 2.8571428571429
scalar BlockchainNetwork.iotNode[2] AverageBadServicesAt_850 2.8571428571429
scalar BlockchainNetwork.iotNode[3] AverageBadServicesAt_850 2.8571428571429
scalar BlockchainNetwork.iotNode[4] AverageBadServicesAt_850 2.8571428571429
scalar BlockchainNetwork.iotNode[5] AverageBadServicesAt_850 2.8571428571429
scalar BlockchainNetwork.iotNode[6] AverageBadServicesAt_850 2.8571428571429
scalar BlockchainNetwork.iotNode[7] AverageBadServicesAt_850 2.8571428571429
scalar BlockchainNetwork.iotNode[8] AverageBadServicesAt_850 2.8571428571429
scalar BlockchainNetwork.iotNode[9] AverageBadServicesAt_850 2.8571428571429
scalar BlockchainNetwork.iotNode[0] AverageBadServicesAt_860 2.8571428571429
scalar BlockchainNetwork.iotNode[1] AverageBadServicesAt_860 2.8571428571429
scalar BlockchainNetwork.iotNode[2] AverageBadServicesAt_860 2.8571428571429
scalar BlockchainNetwork.iotNode[3] AverageBadServicesAt_860 2.8571428571429
scalar BlockchainNetwork.iotNode[4] AverageBadServicesAt_860 2.8571428571429
scalar BlockchainNetwork.iotNode[5] AverageBadServicesAt_860 2.8571428571429
scalar BlockchainNetwork.iotNode[6] AverageBadServicesAt_860 2.8571428571429
scalar BlockchainNetwork.iotNode[7] AverageBadServicesAt_860 2.8571428571429
scalar BlockchainNetwork.iotNode[8] AverageBadServicesAt_860 2.8571428571429
scalar BlockchainNetwork.iotNode[9] AverageBadServicesAt_860 2.8571428571429
scalar BlockchainNetwork.iotNode[0] AverageBadServicesAt_870 2.8571428571429
scalar BlockchainNetwork.iotNode[1] AverageBadServicesAt_870 2.8571428571429
scalar BlockchainNetwork.iotNode[2] AverageBadServicesAt_870 2.8571428571429
scalar BlockchainNetwork.iotNode[3] AverageBadServicesAt_870 2.8571428571429
scalar BlockchainNetwork.iotNode[4] AverageBadServicesAt_870 2.8571428571429
scalar BlockchainNetwork.iotNode[5] AverageBadServicesAt_870 2.8571428571429
scalar BlockchainNetwork.iotNode[6] AverageBadServicesAt_870 2.8571428571429
scalar BlockchainNetwork.iotNode[7] AverageBadServicesAt_870 2.8571428571429
scalar BlockchainNetwork.iotNode[8] AverageBadServicesAt_870 2.8571428571429
scalar BlockchainNetwork.iotNode[9] AverageBadServicesAt_870 2.8571428571429
scalar BlockchainNetwork.iotNode[0] AverageBadServicesAt_880 2.8571428571429
scalar BlockchainNetwork.iotNode[1] AverageBadServicesAt_880 2.8571428571429
scalar BlockchainNetwork.iotNode[2] AverageBadServicesAt_880 2.8571428571429
scalar BlockchainNetwork.iotNode[3] AverageBadServicesAt_880 2.8571428571429
scalar BlockchainNetwork.iotNode[4] AverageBadServicesAt_880 2.8571428571429
scalar BlockchainNetwork.iotNode[5] AverageBadServicesAt_880 2.8571428571429
scalar BlockchainNetwork.iotNode[6] AverageBadServicesAt_880 2.8571428571429
scalar BlockchainNetwork.iotNode[7] AverageBadServicesAt_880 2.8571428571429
scalar BlockchainNetwork.iotNode[8] AverageBadServicesAt_880 2.8571428571429
scalar BlockchainNetwork.iotNode[9] AverageBadServicesAt_880 2.8571428571429
scalar BlockchainNetwork.iotNode[0] AverageBadServicesAt_890 2.8571428571429
scalar BlockchainNetwork.iotNode[1] AverageBadServicesAt_890 2.8571428571429
scalar BlockchainNetwork.iotNode[2] AverageBadServicesAt_890 2.8571428571429
scalar BlockchainNetwork.iotNode[3] AverageBadServicesAt_890 2.8571428571429
scalar BlockchainNetwork.iotNode[4] AverageBadServicesAt_890 2.8571428571429
scalar BlockchainNetwork.iotNode[5] AverageBadServicesAt_890 2.8571428571429
scalar BlockchainNetwork.iotNode[6] AverageBadServicesAt_890 2.8571428571429
scalar BlockchainNetwork.iotNode[7] AverageBadServicesAt_890 2.8571428571429
scalar BlockchainNetwork.iotNode[8] AverageBadServicesAt_890 2.8571428571429
scalar BlockchainNetwork.iotNode[9] AverageBadServicesAt_890 2.8571428571429
scalar BlockchainNetwork.iotNode[0] AverageBadServicesAt_900 2.8571428571429
scalar BlockchainNetwork.iotNode[1] AverageBadServicesAt_900 2.8571428571429
scalar BlockchainNetwork.iotNode[2] AverageBadServicesAt_900 2.8571428571429
scalar BlockchainNetwork.iotNode[3] AverageBadServicesAt_900 2.8571428571429
scalar BlockchainNetwork.iotNode[4] AverageBadServicesAt_900 2.8571428571429
scalar BlockchainNetwork.iotNode[5] AverageBadServicesAt_900 2.8571428571429
scalar BlockchainNetwork.iotNode[6] AverageBadServicesAt_900 2.8571428571429
scalar BlockchainNetwork.iotNode[7] AverageBadServicesAt_900 2.8571428571429
scalar BlockchainNetwork.iotNode[8] AverageBadServicesAt_900 2.8571428571429
scalar BlockchainNetwork.iotNode[9] AverageBadServicesAt_900 2.8571428571429
scalar BlockchainNetwork.iotNode[0] AverageBadServicesAt_910 2.8571428571429
scalar BlockchainNetwork.iotNode[1] AverageBadServicesAt_910 2.8571428571429
scalar BlockchainNetwork.iotNode[2] AverageBadServicesAt_910 2.8571428571429
scalar BlockchainNetwork.iotNode[3] AverageBadServicesAt_910 2.8571428571429
scalar BlockchainNetwork.iotNode[4] AverageBadServicesAt_910 2.8571428571429
scalar BlockchainNetwork.iotNode[5] AverageBadServicesAt_910 2.8571428571429
scalar BlockchainNetwork.iotNode[6] AverageBadServicesAt_910 2.8571428571429
scalar BlockchainNetwork.iotNode[7] AverageBadServicesAt_910 2.8571428571429
scalar BlockchainNetwork.iotNode[8] AverageBadServicesAt_910 2.8571428571429
scalar BlockchainNetwork.iotNode[9] AverageBadServicesAt_910 2.8571428571429
scalar BlockchainNetwork.iotNode[0] AverageBadServicesAt_920 2.8571428571429
scalar BlockchainNetwork.iotNode[1] AverageBadServicesAt_920 2.8571428571429
scalar BlockchainNetwork.iotNode[2] AverageBadServicesAt_920 2.8571428571429
scalar BlockchainNetwork.iotNode[3] AverageBadServicesAt_920 2.8571428571429
scalar BlockchainNetwork.iotNode[4] AverageBadServicesAt_920 2.8571428571429
scalar BlockchainNetwork.iotNode[5] AverageBadServicesAt_920 2.8571428571429
scalar BlockchainNetwork.iotNode[6] AverageBadServicesAt_920 2.8571428571429
scalar BlockchainNetwork.iotNode[7] AverageBadServicesAt_920 2.8571428571429
scalar BlockchainNetwork.iotNode[8] AverageBadServicesAt_920 2.8571428571429
scalar BlockchainNetwork.iotNode[9] AverageBadServicesAt_920 2.8571428571429
scalar BlockchainNetwork.iotNode[0] AverageBadServicesAt_930 2.8571428571429
scalar BlockchainNetwork.iotNode[1] AverageBadServicesAt_930 2.8571428571429
scalar BlockchainNetwork.iotNode[2] AverageBadServicesAt_930 2.8571428571429
scalar BlockchainNetwork.iotNode[3] AverageBadServicesAt_930 2.8571428571429
scalar BlockchainNetwork.iotNode[4] AverageBadServicesAt_930 2.8571428571429
scalar BlockchainNetwork.iotNode[5] AverageBadServicesAt_930 2.8571428571429
scalar BlockchainNetwork.iotNode[6] AverageBadServicesAt_930 2.8571428571429
scalar BlockchainNetwork.iotNode[7] AverageBadServicesAt_930 2.8571428571429
scalar BlockchainNetwork.iotNode[8] AverageBadServicesAt_930 2.8571428571429
scalar BlockchainNetwork.iotNode[9] AverageBadServicesAt_930 2.8571428571429
scalar BlockchainNetwork.iotNode[0] AverageBadServicesAt_940 2.8571428571429
scalar BlockchainNetwork.iotNode[1] AverageBadServicesAt_940 2.8571428571429
scalar BlockchainNetwork.iotNode[2] AverageBadServicesAt_940 2.8571428571429
scalar BlockchainNetwork.iotNode[3] AverageBadServicesAt_940 2.8571428571429
scalar BlockchainNetwork.iotNode[4] AverageBadServicesAt_940 2.8571428571429
scalar BlockchainNetwork.iotNode[5] AverageBadServicesAt_940 2.8571428571429
scalar BlockchainNetwork.iotNode[6] AverageBadServicesAt_940 2.8571428571429
scalar BlockchainNetwork.iotNode[7] AverageBadServicesAt_940 2.8571428571429
scalar BlockchainNetwork.iotNode[8] AverageBadServicesAt_940 2.8571428571429
scalar BlockchainNetwork.iotNode[9] AverageBadServicesAt_940 2.8571428571429
scalar BlockchainNetwork.iotNode[0] AverageBadServicesAt_950 2.8571428571429
scalar BlockchainNetwork.iotNode[1] AverageBadServicesAt_950 2.8571428571429
scalar BlockchainNetwork.iotNode[2] AverageBadServicesAt_950 2.8571428571429
scalar BlockchainNetwork.iotNode[3] AverageBadServicesAt_950 2.8571428571429
scalar BlockchainNetwork.iotNode[4] AverageBadServicesAt_950 2.8571428571429
scalar BlockchainNetwork.iotNode[5] AverageBadServicesAt_950 2.8571428571429
scalar BlockchainNetwork.iotNode[6] AverageBadServicesAt_950 2.8571428571429
scalar BlockchainNetwork.iotNode[7] AverageBadServicesAt_950 2.8571428571429
scalar BlockchainNetwork.iotNode[8] AverageBadServicesAt_950 2.8571428571429
scalar BlockchainNetwork.iotNode[9] AverageBadServicesAt_950 2.8571428571429
scalar BlockchainNetwork.iotNode[0] AverageBadServicesAt_960 2.8571428571429
scalar BlockchainNetwork.iotNode[1] AverageBadServicesAt_960 2.8571428571429
scalar BlockchainNetwork.iotNode[2] AverageBadServicesAt_960 2.8571428571429
scalar BlockchainNetwork.iotNode[3] AverageBadServicesAt_960 2.8571428571429
scalar BlockchainNetwork.iotNode[4] AverageBadServicesAt_960 2.8571428571429
scalar BlockchainNetwork.iotNode[5] AverageBadServicesAt_960 2.8571428571429
scalar BlockchainNetwork.iotNode[6] AverageBadServicesAt_960 2.8571428571429
scalar BlockchainNetwork.iotNode[7] AverageBadServicesAt_960 2.8571428571429
scalar BlockchainNetwork.iotNode[8] AverageBadServicesAt_960 2.8571428571429
scalar BlockchainNetwork.iotNode[9] AverageBadServicesAt_960 2.8571428571429
scalar BlockchainNetwork.iotNode[0] AverageBadServicesAt_970 2.8571428571429
scalar BlockchainNetwork.iotNode[1] AverageBadServicesAt_970 2.8571428571429
scalar BlockchainNetwork.iotNode[2] AverageBadServicesAt_970 2.8571428571429
scalar BlockchainNetwork.iotNode[3] AverageBadServicesAt_970 2.8571428571429
scalar BlockchainNetwork.iotNode[4] AverageBadServicesAt_970 2.8571428571429
scalar BlockchainNetwork.iotNode[5] AverageBadServicesAt_970 2.8571428571429
scalar BlockchainNetwork.iotNode[6] AverageBadServicesAt_970 2.8571428571429
scalar BlockchainNetwork.iotNode[7] AverageBadServicesAt_970 2.8571428571429
scalar BlockchainNetwork.iotNode[8] AverageBadServicesAt_970 2.8571428571429
scalar BlockchainNetwork.iotNode[9] AverageBadServicesAt_970 2.8571428571429
scalar BlockchainNetwork.iotNode[0] AverageBadServicesAt_980 2.8571428571429
scalar BlockchainNetwork.iotNode[1] AverageBadServicesAt_980 2.8571428571429
scalar BlockchainNetwork.iotNode[2] AverageBadServicesAt_980 2.8571428571429
scalar BlockchainNetwork.iotNode[3] AverageBadServicesAt_980 2.8571428571429
scalar BlockchainNetwork.iotNode[4] AverageBadServicesAt_980 2.8571428571429
scalar BlockchainNetwork.iotNode[5] AverageBadServicesAt_980 2.8571428571429
scalar BlockchainNetwork.iotNode[6] AverageBadServicesAt_980 2.8571428571429
scalar BlockchainNetwork.iotNode[7] AverageBadServicesAt_980 2.8571428571429
scalar BlockchainNetwork.iotNode[8] AverageBadServicesAt_980 2.8571428571429
scalar BlockchainNetwork.iotNode[9] AverageBadServicesAt_980 2.8571428571429
scalar BlockchainNetwork.iotNode[0] AverageBadServicesAt_990 2.8571428571429
scalar BlockchainNetwork.iotNode[1] AverageBadServicesAt_990 2.8571428571429
scalar BlockchainNetwork.iotNode[2] AverageBadServicesAt_990 2.8571428571429
scalar BlockchainNetwork.iotNode[3] AverageBadServicesAt_990 2.8571428571429
scalar BlockchainNetwork.iotNode[4] AverageBadServicesAt_990 2.8571428571429
scalar BlockchainNetwork.iotNode[5] AverageBadServicesAt_990 2.8571428571429
scalar BlockchainNetwork.iotNode[6] AverageBadServicesAt_990 2.8571428571429
scalar BlockchainNetwork.iotNode[7] AverageBadServicesAt_990 2.8571428571429
scalar BlockchainNetwork.iotNode[8] AverageBadServicesAt_990 2.8571428571429
scalar BlockchainNetwork.iotNode[9] AverageBadServicesAt_990 2.8571428571429
scalar BlockchainNetwork.iotNode[0] AverageBadServicesAt_1000 2.8571428571429
scalar BlockchainNetwork.iotNode[1] AverageBadServicesAt_1000 2.8571428571429
scalar BlockchainNetwork.iotNode[2] AverageBadServicesAt_1000 2.8571428571429
scalar BlockchainNetwork.iotNode[3] AverageBadServicesAt_1000 2.8571428571429
scalar BlockchainNetwork.iotNode[4] AverageBadServicesAt_1000 2.8571428571429
scalar BlockchainNetwork.iotNode[5] AverageBadServicesAt_1000 2.8571428571429
scalar BlockchainNetwork.iotNode[6] AverageBadServicesAt_1000 2.8571428571429
scalar BlockchainNetwork.iotNode[7] AverageBadServicesAt_1000 2.8571428571429
scalar BlockchainNetwork.iotNode[8] AverageBadServicesAt_1000 2.8571428571429
scalar BlockchainNetwork.iotNode[9] AverageBadServicesAt_1000 2.8571428571429
scalar BlockchainNetwork.iotNode[0] AverageBadServicesAt_1010 2.8571428571429
scalar BlockchainNetwork.iotNode[1] AverageBadServicesAt_1010 2.8571428571429
scalar BlockchainNetwork.iotNode[2] AverageBadServicesAt_1010 2.8571428571429
scalar BlockchainNetwork.iotNode[3] AverageBadServicesAt_1010 2.8571428571429
scalar BlockchainNetwork.iotNode[4] AverageBadServicesAt_1010 2.8571428571429
scalar BlockchainNetwork.iotNode[5] AverageBadServicesAt_1010 2.8571428571429
scalar BlockchainNetwork.iotNode[6] AverageBadServicesAt_1010 2.8571428571429
scalar BlockchainNetwork.iotNode[7] AverageBadServicesAt_1010 2.8571428571429
scalar BlockchainNetwork.iotNode[8] AverageBadServicesAt_1010 2.8571428571429
scalar BlockchainNetwork.iotNode[9] AverageBadServicesAt_1010 2.8571428571429
scalar BlockchainNetwork.iotNode[0] AverageBadServicesAt_1020 2.8571428571429
scalar BlockchainNetwork.iotNode[1] AverageBadServicesAt_1020 2.8571428571429
scalar BlockchainNetwork.iotNode[2] AverageBadServicesAt_1020 2.8571428571429
scalar BlockchainNetwork.iotNode[3] AverageBadServicesAt_1020 2.8571428571429
scalar BlockchainNetwork.iotNode[4] AverageBadServicesAt_1020 2.8571428571429
scalar BlockchainNetwork.iotNode[5] AverageBadServicesAt_1020 2.8571428571429
scalar BlockchainNetwork.iotNode[6] AverageBadServicesAt_1020 2.8571428571429
scalar BlockchainNetwork.iotNode[7] AverageBadServicesAt_1020 2.8571428571429
scalar BlockchainNetwork.iotNode[8] AverageBadServicesAt_1020 2.8571428571429
[...]
scalar BlockchainNetwork.iotNode[1] AverageBadServicesAt_1860 3.2857142857143
scalar BlockchainNetwork.iotNode[2] AverageBadServicesAt_1860 3.2857142857143
scalar BlockchainNetwork.iotNode[3] AverageBadServicesAt_1860 3.2857142857143
scalar BlockchainNetwork.iotNode[4] AverageBadServicesAt_1860 3.2857142857143
scalar BlockchainNetwork.iotNode[5] AverageBadServicesAt_1860 3.2857142857143
scalar BlockchainNetwork.iotNode[6] AverageBadServicesAt_1860 3.2857142857143
scalar BlockchainNetwork.iotNode[7] AverageBadServicesAt_1860 3.2857142857143
scalar BlockchainNetwork.iotNode[8] AverageBadServicesAt_1860 3.2857142857143
scalar BlockchainNetwork.iotNode[9] AverageBadServicesAt_1860 3.2857142857143
scalar BlockchainNetwork.iotNode[0] AverageBadServicesAt_1870 3.2857142857143
scalar BlockchainNetwork.iotNode[1] AverageBadServicesAt_1870 3.2857142857143
scalar BlockchainNetwork.iotNode[2] AverageBadServicesAt_1870 3.2857142857143
scalar BlockchainNetwork.iotNode[3] AverageBadServicesAt_1870 3.2857142857143
scalar BlockchainNetwork.iotNode[4] AverageBadServicesAt_1870 3.2857142857143
scalar BlockchainNetwork.iotNode[5] AverageBadServicesAt_1870 3.2857142857143
scalar BlockchainNetwork.iotNode[6] AverageBadServicesAt_1870 3.2857142857143
scalar BlockchainNetwork.iotNode[7] AverageBadServicesAt_1870 3.2857142857143
scalar BlockchainNetwork.iotNode[8] AverageBadServicesAt_1870 3.2857142857143
scalar BlockchainNetwork.iotNode[9] AverageBadServicesAt_1870 3.2857142857143
scalar BlockchainNetwork.iotNode[0] AverageBadServicesAt_1880 3.2857142857143
scalar BlockchainNetwork.iotNode[1] AverageBadServicesAt_1880 3.2857142857143
scalar BlockchainNetwork.iotNode[2] AverageBadServicesAt_1880 3.2857142857143
scalar BlockchainNetwork.iotNode[3] AverageBadServicesAt_1880 3.2857142857143
scalar BlockchainNetwork.iotNode[4] AverageBadServicesAt_1880 3.2857142857143
scalar BlockchainNetwork.iotNode[5] AverageBadServicesAt_1880 3.2857142857143
scalar BlockchainNetwork.iotNode[6] AverageBadServicesAt_1880 3.2857142857143
scalar BlockchainNetwork.iotNode[7] AverageBadServicesAt_1880 3.2857142857143
scalar BlockchainNetwork.iotNode[8] AverageBadServicesAt_1880 3.2857142857143
scalar BlockchainNetwork.iotNode[9] AverageBadServicesAt_1880 3.2857142857143
scalar BlockchainNetwork.iotNode[0] AverageBadServicesAt_1890 3.2857142857143
scalar BlockchainNetwork.iotNode[1] AverageBadServicesAt_1890 3.2857142857143
scalar BlockchainNetwork.iotNode[2] AverageBadServicesAt_1890 3.2857142857143
scalar BlockchainNetwork.iotNode[3] AverageBadServicesAt_1890 3.2857142857143
scalar BlockchainNetwork.iotNode[4] AverageBadServicesAt_1890 3.2857142857143
scalar BlockchainNetwork.iotNode[5] AverageBadServicesAt_1890 3.2857142857143
scalar BlockchainNetwork.iotNode[6] AverageBadServicesAt_1890 3.2857142857143
scalar BlockchainNetwork.iotNode[7] AverageBadServicesAt_1890 3.2857142857143
scalar BlockchainNetwork.iotNode[8] AverageBadServicesAt_1890 3.2857142857143
scalar BlockchainNetwork.iotNode[9] AverageBadServicesAt_1890 3.2857142857143
scalar BlockchainNetwork.iotNode[0] AverageBadServicesAt_1900 3.2857142857143
scalar BlockchainNetwork.iotNode[1] AverageBadServicesAt_1900 3.2857142857143
scalar BlockchainNetwork.iotNode[2] AverageBadServicesAt_1900 3.2857142857143
scalar BlockchainNetwork.iotNode[3] AverageBadServicesAt_1900 3.2857142857143
scalar BlockchainNetwork.iotNode[4] AverageBadServicesAt_1900 3.2857142857143
scalar BlockchainNetwork.iotNode[5] AverageBadServicesAt_1900 3.2857142857143
scalar BlockchainNetwork.iotNode[6] AverageBadServicesAt_1900 3.2857142857143
scalar BlockchainNetwork.iotNode[7] AverageBadServicesAt_1900 3.2857142857143
scalar BlockchainNetwork.iotNode[8] AverageBadServicesAt_1900 3.2857142857143
scalar BlockchainNetwork.iotNode[9] AverageBadServicesAt_1900 3.2857142857143
scalar BlockchainNetwork.iotNode[0] AverageBadServicesAt_1910 3.2857142857143
scalar BlockchainNetwork.iotNode[1] AverageBadServicesAt_1910 3.2857142857143
scalar BlockchainNetwork.iotNode[2] AverageBadServicesAt_1910 3.2857142857143
scalar BlockchainNetwork.iotNode[3] AverageBadServicesAt_1910 3.2857142857143
scalar BlockchainNetwork.iotNode[4] AverageBadServicesAt_1910 3.2857142857143
scalar BlockchainNetwork.iotNode[5] AverageBadServicesAt_1910 3.2857142857143
scalar BlockchainNetwork.iotNode[6] AverageBadServicesAt_1910 3.2857142857143
scalar BlockchainNetwork.iotNode[7] AverageBadServicesAt_1910 3.2857142857143
scalar BlockchainNetwork.iotNode[8] AverageBadServicesAt_1910 3.2857142857143
scalar BlockchainNetwork.iotNode[9] AverageBadServicesAt_1910 3.2857142857143
scalar BlockchainNetwork.iotNode[0] AverageBadServicesAt_1920 3.2857142857143
scalar BlockchainNetwork.iotNode[1] AverageBadServicesAt_1920 3.2857142857143
scalar BlockchainNetwork.iotNode[2] AverageBadServicesAt_1920 3.2857142857143
scalar BlockchainNetwork.iotNode[3] AverageBadServicesAt_1920 3.2857142857143
scalar BlockchainNetwork.iotNode[4] AverageBadServicesAt_1920 3.2857142857143
scalar BlockchainNetwork.iotNode[5] AverageBadServicesAt_1920 3.2857142857143
scalar BlockchainNetwork.iotNode[6] AverageBadServicesAt_1920 3.2857142857143
scalar BlockchainNetwork.iotNode[7] AverageBadServicesAt_1920 3.2857142857143
scalar BlockchainNetwork.iotNode[8] AverageBadServicesAt_1920 3.2857142857143
scalar BlockchainNetwork.iotNode[9] AverageBadServicesAt_1920 3.2857142857143
scalar BlockchainNetwork.iotNode[0] AverageBadServicesAt_1930 3.2857142857143
scalar BlockchainNetwork.iotNode[1] AverageBadServicesAt_1930 3.2857142857143
scalar BlockchainNetwork.iotNode[2] AverageBadServicesAt_1930 3.2857142857143
scalar BlockchainNetwork.iotNode[3] AverageBadServicesAt_1930 3.2857142857143
scalar BlockchainNetwork.iotNode[4] AverageBadServicesAt_1930 3.2857142857143
scalar BlockchainNetwork.iotNode[5] AverageBadServicesAt_1930 3.2857142857143
scalar BlockchainNetwork.iotNode[6] AverageBadServicesAt_1930 3.2857142857143
scalar BlockchainNetwork.iotNode[7] AverageBadServicesAt_1930 3.2857142857143
scalar BlockchainNetwork.iotNode[8] AverageBadServicesAt_1930 3.2857142857143
scalar BlockchainNetwork.iotNode[9] AverageBadServicesAt_1930 3.2857142857143
scalar BlockchainNetwork.iotNode[0] AverageBadServicesAt_1940 3.2857142857143
scalar BlockchainNetwork.iotNode[1] AverageBadServicesAt_1940 3.2857142857143
scalar BlockchainNetwork.iotNode[2] AverageBadServicesAt_1940 3.2857142857143
scalar BlockchainNetwork.iotNode[3] AverageBadServicesAt_1940 3.2857142857143
scalar BlockchainNetwork.iotNode[4] AverageBadServicesAt_1940 3.2857142857143
scalar BlockchainNetwork.iotNode[5] AverageBadServicesAt_1940 3.2857142857143
scalar BlockchainNetwork.iotNode[6] AverageBadServicesAt_1940 3.2857142857143
scalar BlockchainNetwork.iotNode[7] AverageBadServicesAt_1940 3.2857142857143
scalar BlockchainNetwork.iotNode[8] AverageBadServicesAt_1940 3.2857142857143
scalar BlockchainNetwork.iotNode[9] AverageBadServicesAt_1940 3.2857142857143
scalar BlockchainNetwork.iotNode[0] AverageBadServicesAt_1950 3.2857142857143
scalar BlockchainNetwork.iotNode[1] AverageBadServicesAt_1950 3.2857142857143
scalar BlockchainNetwork.iotNode[2] AverageBadServicesAt_1950 3.2857142857143
scalar BlockchainNetwork.iotNode[3] AverageBadServicesAt_1950 3.2857142857143
scalar BlockchainNetwork.iotNode[4] AverageBadServicesAt_1950 3.2857142857143
scalar BlockchainNetwork.iotNode[5] AverageBadServicesAt_1950 3.2857142857143
scalar BlockchainNetwork.iotNode[6] AverageBadServicesAt_1950 3.2857142857143
scalar BlockchainNetwork.iotNode[7] AverageBadServicesAt_1950 3.2857142857143
scalar BlockchainNetwork.iotNode[8] AverageBadServicesAt_1950 3.2857142857143
scalar BlockchainNetwork.iotNode[9] AverageBadServicesAt_1950 3.2857142857143
scalar BlockchainNetwork.iotNode[0] AverageBadServicesAt_1960 3.4285714285714
scalar BlockchainNetwork.iotNode[1] AverageBadServicesAt_1960 3.4285714285714
scalar BlockchainNetwork.iotNode[2] AverageBadServicesAt_1960 3.4285714285714
scalar BlockchainNetwork.iotNode[3] AverageBadServicesAt_1960 3.4285714285714
scalar BlockchainNetwork.iotNode[4] AverageBadServicesAt_1960 3.4285714285714
scalar BlockchainNetwork.iotNode[5] AverageBadServicesAt_1960 3.4285714285714
scalar BlockchainNetwork.iotNode[6] AverageBadServicesAt_1960 3.4285714285714
scalar BlockchainNetwork.iotNode[7] AverageBadServicesAt_1960 3.4285714285714
scalar BlockchainNetwork.iotNode[8] AverageBadServicesAt_1960 3.4285714285714
scalar BlockchainNetwork.iotNode[9] AverageBadServicesAt_1960 3.4285714285714
scalar BlockchainNetwork.iotNode[0] AverageBadServicesAt_1970 3.4285714285714
scalar BlockchainNetwork.iotNode[1] AverageBadServicesAt_1970 3.4285714285714
scalar BlockchainNetwork.iotNode[2] AverageBadServicesAt_1970 3.4285714285714
scalar BlockchainNetwork.iotNode[3] AverageBadServicesAt_1970 3.4285714285714
scalar BlockchainNetwork.iotNode[4] AverageBadServicesAt_1970 3.4285714285714
scalar BlockchainNetwork.iotNode[5] AverageBadServicesAt_1970 3.4285714285714
scalar BlockchainNetwork.iotNode[6] AverageBadServicesAt_1970 3.4285714285714
scalar BlockchainNetwork.iotNode[7] AverageBadServicesAt_1970 3.4285714285714
scalar BlockchainNetwork.iotNode[8] AverageBadServicesAt_1970 3.4285714285714
scalar BlockchainNetwork.iotNode[9] AverageBadServicesAt_1970 3.4285714285714
scalar BlockchainNetwork.iotNode[0] AverageBadServicesAt_1980 3.5714285714286
scalar BlockchainNetwork.iotNode[1] AverageBadServicesAt_1980 3.5714285714286
scalar BlockchainNetwork.iotNode[2] AverageBadServicesAt_1980 3.5714285714286
scalar BlockchainNetwork.iotNode[3] AverageBadServicesAt_1980 3.5714285714286
scalar BlockchainNetwork.iotNode[4] AverageBadServicesAt_1980 3.5714285714286
scalar BlockchainNetwork.iotNode[5] AverageBadServicesAt_1980 3.5714285714286
scalar BlockchainNetwork.iotNode[6] AverageBadServicesAt_1980 3.5714285714286
scalar BlockchainNetwork.iotNode[7] AverageBadServicesAt_1980 3.5714285714286
scalar BlockchainNetwork.iotNode[8] AverageBadServicesAt_1980 3.5714285714286
scalar BlockchainNetwork.iotNode[9] AverageBadServicesAt_1980 3.5714285714286
scalar BlockchainNetwork.iotNode[0] AverageBadServicesAt_1990 3.5714285714286
scalar BlockchainNetwork.iotNode[1] AverageBadServicesAt_1990 3.5714285714286
scalar BlockchainNetwork.iotNode[2] AverageBadServicesAt_1990 3.5714285714286
scalar BlockchainNetwork.iotNode[3] AverageBadServicesAt_1990 3.5714285714286
scalar BlockchainNetwork.iotNode[4] AverageBadServicesAt_1990 3.5714285714286
scalar BlockchainNetwork.iotNode[5] AverageBadServicesAt_1990 3.5714285714286
scalar BlockchainNetwork.iotNode[6] AverageBadServicesAt_1990 3.5714285714286
scalar BlockchainNetwork.iotNode[7] AverageBadServicesAt_1990 3.5714285714286
scalar BlockchainNetwork.iotNode[8] AverageBadServicesAt_1990 3.5714285714286
scalar BlockchainNetwork.iotNode[9] AverageBadServicesAt_1990 3.5714285714286
scalar BlockchainNetwork.iotNode[0] AverageBadServicesAt_2000 3.5714285714286
scalar BlockchainNetwork.iotNode[1] AverageBadServicesAt_2000 3.5714285714286
scalar BlockchainNetwork.iotNode[2] AverageBadServicesAt_2000 3.5714285714286
scalar BlockchainNetwork.iotNode[3] AverageBadServicesAt_2000 3.5714285714286
scalar BlockchainNetwork.iotNode[4] AverageBadServicesAt_2000 3.5714285714286
scalar BlockchainNetwork.iotNode[5] AverageBadServicesAt_2000 3.5714285714286
scalar BlockchainNetwork.iotNode[6] AverageBadServicesAt_2000 3.5714285714286
scalar BlockchainNetwork.iotNode[7] AverageBadServicesAt_2000 3.5714285714286
scalar BlockchainNetwork.iotNode[8] AverageBadServicesAt_2000 3.5714285714286
scalar BlockchainNetwork.iotNode[9] AverageBadServicesAt_2000 3.5714285714286
par BlockchainNetwork.iotNode[0] typename "\"src.IoTNode\""
par BlockchainNetwork.iotNode[0] maliciousNodePercentage 0.3
scalar BlockchainNetwork.iotNode[0] TrustOf_11_in_2 0.77217832307447
scalar BlockchainNetwork.iotNode[0] TrustOf_10_in_2 0.5
scalar BlockchainNetwork.iotNode[0] TrustOf_9_in_2 0.5
scalar BlockchainNetwork.iotNode[0] TrustOf_8_in_2 0.94804556976657
scalar BlockchainNetwork.iotNode[0] TrustOf_7_in_2 0.5
scalar BlockchainNetwork.iotNode[0] TrustOf_6_in_2 0.86309265118076
scalar BlockchainNetwork.iotNode[0] TrustOf_5_in_2 0.92291259535372
scalar BlockchainNetwork.iotNode[0] TrustOf_4_in_2 0
scalar BlockchainNetwork.iotNode[0] TrustOf_3_in_2 0
scalar BlockchainNetwork.iotNode[0] FinalBadServicesReceived 5
scalar BlockchainNetwork.iotNode[0] FinalAverageBadServices 3.5714285714286
par BlockchainNetwork.iotNode[1] typename "\"src.IoTNode\""
par BlockchainNetwork.iotNode[1] maliciousNodePercentage 0.3
scalar BlockchainNetwork.iotNode[1] TrustOf_11_in_3 0
scalar BlockchainNetwork.iotNode[1] TrustOf_10_in_3 0.13695541136941
scalar BlockchainNetwork.iotNode[1] TrustOf_9_in_3 0
scalar BlockchainNetwork.iotNode[1] TrustOf_8_in_3 0.13743992216859
scalar BlockchainNetwork.iotNode[1] TrustOf_7_in_3 0.13760918736743
scalar BlockchainNetwork.iotNode[1] TrustOf_6_in_3 0.13738118572353
scalar BlockchainNetwork.iotNode[1] TrustOf_5_in_3 0.13724276275312
scalar BlockchainNetwork.iotNode[1] TrustOf_4_in_3 0
scalar BlockchainNetwork.iotNode[1] TrustOf_2_in_3 0.13761800038723
scalar BlockchainNetwork.iotNode[1] FinalAverageBadServices 3.5714285714286
par BlockchainNetwork.iotNode[2] typename "\"src.IoTNode\""
par BlockchainNetwork.iotNode[2] maliciousNodePercentage 0.3
scalar BlockchainNetwork.iotNode[2] TrustOf_11_in_4 0
scalar BlockchainNetwork.iotNode[2] TrustOf_10_in_4 0.13777541342219
scalar BlockchainNetwork.iotNode[2] TrustOf_9_in_4 0
scalar BlockchainNetwork.iotNode[2] TrustOf_8_in_4 0.137740183311
scalar BlockchainNetwork.iotNode[2] TrustOf_7_in_4 0.13760918736743
scalar BlockchainNetwork.iotNode[2] TrustOf_6_in_4 0.13796032104017
scalar BlockchainNetwork.iotNode[2] TrustOf_5_in_4 0.1376418781831
scalar BlockchainNetwork.iotNode[2] TrustOf_3_in_4 0
scalar BlockchainNetwork.iotNode[2] TrustOf_2_in_4 0.1379649818155
scalar BlockchainNetwork.iotNode[2] FinalAverageBadServices 3.5714285714286
par BlockchainNetwork.iotNode[3] typename "\"src.IoTNode\""
par BlockchainNetwork.iotNode[3] maliciousNodePercentage 0.3
scalar BlockchainNetwork.iotNode[3] TrustOf_11_in_5 0.81227307383929
scalar BlockchainNetwork.iotNode[3] TrustOf_10_in_5 0.5
scalar BlockchainNetwork.iotNode[3] TrustOf_9_in_5 0
scalar BlockchainNetwork.iotNode[3] TrustOf_8_in_5 0.5
scalar BlockchainNetwork.iotNode[3] TrustOf_7_in_5 0.95594649080481
scalar BlockchainNetwork.iotNode[3] TrustOf_6_in_5 0.5
scalar BlockchainNetwork.iotNode[3] TrustOf_4_in_5 0.5
scalar BlockchainNetwork.iotNode[3] TrustOf_3_in_5 0.5
scalar BlockchainNetwork.iotNode[3] TrustOf_2_in_5 0.88450105151365
scalar BlockchainNetwork.iotNode[3] FinalBadServicesReceived 1
scalar BlockchainNetwork.iotNode[3] FinalAverageBadServices 3.5714285714286
par BlockchainNetwork.iotNode[4] typename "\"src.IoTNode\""
par BlockchainNetwork.iotNode[4] maliciousNodePercentage 0.3
scalar BlockchainNetwork.iotNode[4] TrustOf_11_in_6 0.87759417697353
scalar BlockchainNetwork.iotNode[4] TrustOf_10_in_6 0.90608014949835
scalar BlockchainNetwork.iotNode[4] TrustOf_9_in_6 0.5
scalar BlockchainNetwork.iotNode[4] TrustOf_8_in_6 0.5
scalar BlockchainNetwork.iotNode[4] TrustOf_7_in_6 0.5
scalar BlockchainNetwork.iotNode[4] TrustOf_5_in_6 0.5
scalar BlockchainNetwork.iotNode[4] TrustOf_4_in_6 0.5
scalar BlockchainNetwork.iotNode[4] TrustOf_3_in_6 0
scalar BlockchainNetwork.iotNode[4] TrustOf_2_in_6 0.95462856213666
scalar BlockchainNetwork.iotNode[4] FinalBadServicesReceived 2
scalar BlockchainNetwork.iotNode[4] FinalAverageBadServices 3.5714285714286
par BlockchainNetwork.iotNode[5] typename "\"src.IoTNode\""
par BlockchainNetwork.iotNode[5] maliciousNodePercentage 0.3
scalar BlockchainNetwork.iotNode[5] TrustOf_11_in_7 0.5
scalar BlockchainNetwork.iotNode[5] TrustOf_10_in_7 0.95509669201264
scalar BlockchainNetwork.iotNode[5] TrustOf_9_in_7 0.5
scalar BlockchainNetwork.iotNode[5] TrustOf_8_in_7 0.90538936622756
scalar BlockchainNetwork.iotNode[5] TrustOf_6_in_7 0.91057788406214
scalar BlockchainNetwork.iotNode[5] TrustOf_5_in_7 0.5
scalar BlockchainNetwork.iotNode[5] TrustOf_4_in_7 0.5
scalar BlockchainNetwork.iotNode[5] TrustOf_3_in_7 0.5
scalar BlockchainNetwork.iotNode[5] TrustOf_2_in_7 0.5
scalar BlockchainNetwork.iotNode[5] FinalBadServicesReceived 3
scalar BlockchainNetwork.iotNode[5] FinalAverageBadServices 3.5714285714286
par BlockchainNetwork.iotNode[6] typename "\"src.IoTNode\""
par BlockchainNetwork.iotNode[6] maliciousNodePercentage 0.3
scalar BlockchainNetwork.iotNode[6] TrustOf_11_in_8 0.5
scalar BlockchainNetwork.iotNode[6] TrustOf_10_in_8 0.9191129921251
scalar BlockchainNetwork.iotNode[6] TrustOf_9_in_8 0
scalar BlockchainNetwork.iotNode[6] TrustOf_7_in_8 0.5
scalar BlockchainNetwork.iotNode[6] TrustOf_6_in_8 0.5
scalar BlockchainNetwork.iotNode[6] TrustOf_5_in_8 0.95698578628482
scalar BlockchainNetwork.iotNode[6] TrustOf_4_in_8 0.5
scalar BlockchainNetwork.iotNode[6] TrustOf_3_in_8 0
scalar BlockchainNetwork.iotNode[6] TrustOf_2_in_8 0.89438542719784
scalar BlockchainNetwork.iotNode[6] FinalBadServicesReceived 6
scalar BlockchainNetwork.iotNode[6] FinalAverageBadServices 3.5714285714286
par BlockchainNetwork.iotNode[7] typename "\"src.IoTNode\""
par BlockchainNetwork.iotNode[7] maliciousNodePercentage 0.3
scalar BlockchainNetwork.iotNode[7] TrustOf_11_in_9 0.014291660340327
scalar BlockchainNetwork.iotNode[7] TrustOf_10_in_9 0.13779220661813
scalar BlockchainNetwork.iotNode[7] TrustOf_8_in_9 0.1380707515013
scalar BlockchainNetwork.iotNode[7] TrustOf_7_in_9 0.1379266838508
scalar BlockchainNetwork.iotNode[7] TrustOf_6_in_9 0.13810392526879
scalar BlockchainNetwork.iotNode[7] TrustOf_5_in_9 0.13824193571639
scalar BlockchainNetwork.iotNode[7] TrustOf_4_in_9 0
scalar BlockchainNetwork.iotNode[7] TrustOf_3_in_9 0
scalar BlockchainNetwork.iotNode[7] TrustOf_2_in_9 0.13813366321314
scalar BlockchainNetwork.iotNode[7] FinalAverageBadServices 3.5714285714286
par BlockchainNetwork.iotNode[8] typename "\"src.IoTNode\""
par BlockchainNetwork.iotNode[8] maliciousNodePercentage 0.3
scalar BlockchainNetwork.iotNode[8] TrustOf_11_in_10 0.5
scalar BlockchainNetwork.iotNode[8] TrustOf_9_in_10 0
scalar BlockchainNetwork.iotNode[8] TrustOf_8_in_10 0.94530763195429
scalar BlockchainNetwork.iotNode[8] TrustOf_7_in_10 0.5
scalar BlockchainNetwork.iotNode[8] TrustOf_6_in_10 0.5
scalar BlockchainNetwork.iotNode[8] TrustOf_5_in_10 0.5
scalar BlockchainNetwork.iotNode[8] TrustOf_4_in_10 0
scalar BlockchainNetwork.iotNode[8] TrustOf_3_in_10 0
scalar BlockchainNetwork.iotNode[8] TrustOf_2_in_10 0.93633512463713
scalar BlockchainNetwork.iotNode[8] FinalBadServicesReceived 7
scalar BlockchainNetwork.iotNode[8] FinalAverageBadServices 3.5714285714286
par BlockchainNetwork.iotNode[9] typename "\"src.IoTNode\""
par BlockchainNetwork.iotNode[9] maliciousNodePercentage 0.3
scalar BlockchainNetwork.iotNode[9] TrustOf_10_in_11 0.90124588890758
scalar BlockchainNetwork.iotNode[9] TrustOf_9_in_11 0.5
scalar BlockchainNetwork.iotNode[9] TrustOf_8_in_11 0.5
scalar BlockchainNetwork.iotNode[9] TrustOf_7_in_11 0.89553430359593
scalar BlockchainNetwork.iotNode[9] TrustOf_6_in_11 0.95656107281938
scalar BlockchainNetwork.iotNode[9] TrustOf_5_in_11 0.5
scalar BlockchainNetwork.iotNode[9] TrustOf_4_in_11 0
scalar BlockchainNetwork.iotNode[9] TrustOf_3_in_11 0.5
scalar BlockchainNetwork.iotNode[9] TrustOf_2_in_11 0.5
scalar BlockchainNetwork.iotNode[9] FinalBadServicesReceived 1
scalar BlockchainNetwork.iotNode[9] FinalAverageBadServices 3.5714285714286
par BlockchainNetwork typename "\"src.BlockchainNetwork\""
par BlockchainNetwork numNodes 10
par BlockchainNetwork maliciousNodePercentage 0.3

